$DATA1 SOURCE='HSPICE' VERSION='H-2013.03-SP1 32-BIT'
.TITLE '* topologia dice'
 escrita_0        leitura_0        escrita_1        leitura_1         
 energia_vdd      temper           alter#            
    failed           failed           failed           failed         
 -3.951e-14         25.0000        1                 
