$DATA1 SOURCE='HSPICE' VERSION='H-2013.03-SP1 32-BIT'
.TITLE '* topologia dice'
 escrita_0        leitura_0        escrita_1        leitura_1         
 energia_vdd      temper           alter#            
  1.078e-11        2.353e-11        1.441e-11        2.318e-11        
 -6.632e-14         25.0000        1                 
