$DATA1 SOURCE='HSPICE' VERSION='H-2013.03-SP1 32-BIT'
.TITLE '* circuito pdice'
 leitura_0        energia_vdd      temper           alter#            
  3.525e-12       -1.064e-16         25.0000        1                 
