$DATA1 SOURCE='HSPICE' VERSION='H-2013.03-SP1 32-BIT'
.TITLE '* circuito dice'
 leitura_0        energia_vdd      temper           alter#            
  9.555e-13       -8.788e-17         25.0000        1                 
