Using: /usr/synopsys/hspice_H-2013.03-SP1/hspice/linux/hspice 6t.txt
 ****** HSPICE -- H-2013.03-SP1 32-BIT (May 29 2013) RHEL32 ******
  Copyright (C) 2013 Synopsys, Inc. All Rights Reserved.
  Unpublished-rights reserved under US copyright laws.
  This program is protected by law and is subject to the
  terms and conditions of the license agreement from Synopsys.
  Use of this program is your acceptance to be bound by the
  license agreement. HSPICE is the trademark of Synopsys, Inc.
  Input File: 6t.txt
  Command line options: 6t.txt
 lic:
 lic: FLEXlm: v10.9.8
 lic: USER:   mariahang            HOSTNAME: sagittarius-a
 lic: HOSTID: 00039988e3a4         PID:      12534
 lic: Using FLEXlm license file:
 lic: 27020@localhost
 lic: Checkout 1 hspice
 lic: License/Maintenance for hspice will expire on 08-jun-2020/2019.06
 lic: 1(in_use)/50(total) FLOATING license(s) on SERVER 27020@localhost
 lic:
 Init: read install configuration file: /usr/synopsys/hspice_H-2013.03-SP1/hspice/meta.cfg
  **warning** (Escrita.txt:5) Global net name, "gnd", in subckt pin list. The pin will be connected to the local net. Recommend to not use global net names in subckt pin lists.
1****** HSPICE -- H-2013.03-SP1 32-BIT (May 29 2013) RHEL32 ******
 ******
 '6t 0.5ghz'

  ******  circuit name directory
 circuit number to circuit name directory
   number circuitname                     definition         multiplier
        0 main circuit
        1 xprecarga.                      pre_carga          1.00
        2 xleitura.                       leitura            1.00
        3 xescrita.                       escrita            1.00
1****** HSPICE -- H-2013.03-SP1 32-BIT (May 29 2013) RHEL32 ******
 ******
 '6t 0.5ghz'

  ******  mos   model parameters tnom=  25.000 temp=  25.000 *****
 Model Name: nmos_rvt
 BSIM-MG BULK Model(Level72)
   VERSION =    107
   L = 2.1e-08
   D =  4e-08
   TFIN = 6.5e-09
   FPITCH = 2.7e-08
   NF = 1
   NFIN =      1
   NGCON = 1
   ASEO =      0
   ADEO =      0
   PSEO =      0
   PDEO =      0
   ASEJ =      0
   ADEJ =      0
   PSEJ =      0
   PDEJ =      0
   CGSP =      0
   CGDP =      0
   CDSP =      0
   NRS =      0
   NRD =      0
   LRSD = 2.1e-08
   XL =  1e-09
   DTEMP =      0
   DELVTRAND =      0
   U0MULT =      1
   IDS0MULT =      1
   DEVTYPE = 1
   BULKMOD = 1
   COREMOD = 0
   GEOMOD = 1
   RDSMOD = 0
   ASYMMOD = 0
   IGCMOD = 1
   IGBMOD = 0
   GIDLMOD = 1
   IIMOD = 0
   NQSMOD = 0
   SHMOD = 0
   RGATEMOD = 0
   RGEOMOD = 0
   CGEOMOD = 0
   CAPMOD = 0
   LINT = -2e-09
   LL =      0
   LLN =      1
   DLC =      0
   DLCACC =      0
   DLBIN =      0
   LLC =      0
   EOT =  1e-09
   TOXP = 2.1e-09
   EOTBOX = 1.4e-07
   HFIN = 3.2e-08
   FECH =      1
   DELTAW =      0
   FECHCV =      1
   DELTAWCV =      0
   NBODY =  1e+22
   NSD =  2e+26
   PHIG =  4.372
   EPSROX =    3.9
   EPSRSUB =   11.9
   EASUB =   4.05
   NI0SUB = 1.1e+16
   BG0SUB =   1.17
   NC0SUB = 2.86e+25
   NGATE =      0
   CIT =      0
   CDSC =   0.01
   CDSCD =   0.01
   CDSCDR =   0.01
   DVT0 =   0.05
   DVT1 =   0.48
   PHIN =   0.05
   ETA0 =  0.062
   ETA0R =  0.062
   DSUB =   0.35
   K1RSCE =      0
   LPE0 =      0
   DVTSHIFT =      0
   PHIBE =    0.7
   K0 =      0
   K0SI =      1
   K1 =      0
   K1SAT =      0
   QMFACTOR =    2.5
   QMTCENIV =      0
   QMTCENCV =      0
   QMTCENCVA =      0
   AQMTCEN =      0
   BQMTCEN = 1.2e-08
   ETAQM =   0.54
   QM0 =  0.001
   PQM =   0.66
   QM0ACC =  0.001
   PQMACC =   0.66
   VSAT =  7e+04
   AVSAT =      0
   BVSAT =  1e-07
   VSAT1 =  7e+04
   VSAT1R =  7e+04
   AVSAT1 =      0
   BVSAT1 =  1e-07
   DELTAVSAT =   0.28
   PSAT =      2
   APSAT =      0
   BPSAT =      1
   KSATIV =      2
   VSATCV =  7e+04
   AVSATCV =      0
   BVSATCV =  1e-07
   MEXP =      4
   AMEXP =      0
   BMEXP =      1
   PTWG =     30
   PTWGR =     30
   APTWG =      0
   BPTWG =  1e-07
   AT =  0.001
   TMEXP =      0
   PTWGT =  0.004
   U0 = 0.0252
   ETAMOB =      2
   UP =      0
   LPA =      1
   UA =   0.55
   AUA =      0
   BUA =  1e-07
   UC =      0
   EU =    1.2
   AEU =      0
   BEU =  1e-07
   UD =      0
   AUD =      0
   BUD =  5e-08
   UCS =      1
   UTE =   -0.7
   UTL =      0
   EMOBT =      0
   UA1 = 0.001032
   UC1 = 5.6e-11
   UD1 =      0
   UCSTE = -0.004775
   RDSWMIN =      0
   RDSW =    200
   ARDSW =      0
   BRDSW =  1e-07
   RSWMIN =      0
   RSW =     50
   ARSW =      0
   BRSW =  1e-07
   RDWMIN =      0
   RDW =     50
   ARDW =      0
   BRDW =  1e-07
   RSDR =      0
   RSDRR =      0
   RDDR =      0
   RDDRR =      0
   PRSDR =      1
   PRDDR =      1
   PRWGS =      0
   PRWGD =      0
   WR =      1
   PRT =      0
   TRSDR =      0
   TRDDR =      0
   PDIBL1 =      0
   PDIBL1R =      0
   PDIBL2 =  0.002
   DROUT =      1
   PVAG =      0
   PCLM =   0.05
   APCLM =      0
   BPCLM =  1e-07
   PCLMG =      0
   PCLMCV =   0.05
   A1 =      0
   A2 =      0
   RGEXT =      0
   RGFIN =  0.001
   RSHS =      0
   RSHD =      0
   HEPI =  1e-08
   TSILI =  1e-08
   RHOC =  1e-12
   RHORSD =      1
   CRATIO =    0.5
   DELTAPRSD =      0
   SDTERM = 0
   LSP = 4.4e-09
   EPSRSP =    3.9
   TGATE =  3e-08
   TMASK =  3e-08
   ASILIEND =      0
   ARSDEND =      0
   PRSDEND =      0
   NSDE =  2e+25
   RGEOA =      1
   RGEOB =      0
   RGEOC =      0
   RGEOD =      0
   RGEOE =      0
   CGEOA =      1
   CGEOB =      0
   CGEOC =      0
   CGEOD =      0
   CGEOE =      1
   AIGBINV = 0.0111
   BIGBINV = 0.000949
   CIGBINV =  0.006
   EIGBINV =    1.1
   NIGBINV =      3
   AIGBACC = 0.0136
   BIGBACC = 0.00171
   CIGBACC =  0.075
   NIGBACC =      1
   AIGC =  0.014
   BIGC =  0.005
   CIGC =   0.25
   PIGCD =      1
   DLCIGS =  1e-09
   AIGS = 0.0115
   BIGS = 0.00332
   CIGS =   0.35
   DLCIGD =  1e-09
   AIGD = 0.0115
   BIGD = 0.00332
   CIGD =   0.35
   TOXREF = 1.2e-09
   NTOX =      1
   POXEDGE =    1.1
   AGISL =  1e-12
   BGISL =  1e+07
   CGISL =    0.5
   EGISL =   0.35
   PGISL =      1
   AGIDL =  1e-12
   BGIDL =  1e+07
   CGIDL =    0.5
   EGIDL =   0.35
   PGIDL =      1
   ALPHA0 =      0
   ALPHA1 =      0
   BETA0 =      0
   BETAII0 =      0
   BETAII1 =      0
   BETAII2 =    0.1
   ESATII =  1e+07
   LII =  5e-10
   SII0 =    0.5
   SII1 =    0.1
   SII2 =      0
   SIID =      0
   EOTACC =  1e-10
   DELVFBACC =      0
   CFS =      0
   CFD =      0
   COVS =      0
   COVD =      0
   CGSO = 1.6e-10
   CGDO = 1.6e-10
   CGSL =      0
   CGDL =      0
   CKAPPAS =    0.6
   CKAPPAD =    0.6
   CGBO =      0
   CGBN =      0
   CGBL =      0
   CKAPPAB =    0.6
   CSDESW =      0
   CJS = 0.0005
   CJD = 0.0005
   CJSWS =  5e-10
   CJSWD =  5e-10
   CJSWGS =      0
   CJSWGD =      0
   PBS =      1
   PBD =      1
   PBSWS =      1
   PBSWD =      1
   PBSWGS =      1
   PBSWGD =      1
   MJS =    0.5
   MJD =    0.5
   MJSWS =   0.33
   MJSWD =   0.33
   MJSWGS =   0.33
   MJSWGD =   0.33
   SJS =      0
   SJD =      0
   SJSWS =      0
   SJSWD =      0
   SJSWGS =      0
   SJSWGD =      0
   MJS2 =  0.125
   MJD2 =  0.125
   MJSWS2 =  0.083
   MJSWD2 =  0.083
   MJSWGS2 =  0.083
   MJSWGD2 =  0.083
   JSS = 0.0001
   JSD = 0.0001
   JSWS =      0
   JSWD =      0
   JSWGS =      0
   JSWGD =      0
   NJS =      1
   NJD =      1
   IJTHSFWD =    0.1
   IJTHDFWD =    0.1
   IJTHSREV =    0.1
   IJTHDREV =    0.1
   BVS =     10
   BVD =     10
   XJBVS =      1
   XJBVD =      1
   JTSS =      0
   JTSD =      0
   JTSSWS =      0
   JTSSWD =      0
   JTSSWGS =      0
   JTSSWGD =      0
   JTWEFF =      0
   NJTS =     20
   NJTSD =     20
   NJTSSW =     20
   NJTSSWD =     20
   NJTSSWG =     20
   NJTSSWGD =     20
   VTSS =     10
   VTSD =     10
   VTSSWS =     10
   VTSSWD =     10
   VTSSWGS =     10
   VTSSWGD =     10
   LINTIGEN =      0
   NTGEN =      1
   AIGEN =      0
   BIGEN =      0
   XRCRG1 =     12
   XRCRG2 =      1
   NSEG = 5
   EF =      1
   EM = 4.1e+07
   NOIA = 6.25e+39
   NOIB = 3.125e+24
   NOIC = 8.75e+07
   NTNOI =      1
   TNOM =     25
   TBGASUB = 0.000473
   TBGBSUB =    636
   KT1 =      0
   KT1L =      0
   TSS =      0
   IIT =   -0.5
   TII =      0
   TGIDL = -0.007
   IGT =    2.5
   TCJ =      0
   TCJSW =      0
   TCJSWG =      0
   TPB =      0
   TPBSW =      0
   TPBSWG =      0
   XTIS =      3
   XTID =      3
   XTSS =   0.02
   XTSD =   0.02
   XTSSWS =   0.02
   XTSSWD =   0.02
   XTSSWGS =   0.02
   XTSSWGD =   0.02
   TNJTS =      0
   TNJTSD =      0
   TNJTSSW =      0
   TNJTSSWD =      0
   TNJTSSWG =      0
   TNJTSSWGD =      0
   RTH0 =  0.225
   CTH0 = 1.243e-06
   WTH0 = 2.6e-07
   LNBODY =      0
   NNBODY =      0
   PNBODY =      0
   LPHIG =      0
   NPHIG =      0
   PPHIG =      0
   LNGATE =      0
   NNGATE =      0
   PNGATE =      0
   LCIT =      0
   NCIT =      0
   PCIT =      0
   LCDSC =      0
   NCDSC =      0
   PCDSC =      0
   LCDSCD =  5e-05
   NCDSCD =      0
   PCDSCD =      0
   LCDSCDR =  5e-05
   NCDSCDR =      0
   PCDSCDR =      0
   LDVT0 =      0
   NDVT0 =      0
   PDVT0 =      0
   LDVT1 =      0
   NDVT1 =      0
   PDVT1 =      0
   LPHIN =      0
   NPHIN =      0
   PPHIN =      0
   LETA0 =      0
   NETA0 =      0
   PETA0 =      0
   LETA0R =      0
   NETA0R =      0
   PETA0R =      0
   LDSUB =      0
   NDSUB =      0
   PDSUB =      0
   LK1RSCE =      0
   NK1RSCE =      0
   PK1RSCE =      0
   LLPE0 =      0
   NLPE0 =      0
   PLPE0 =      0
   LDVTSHIFT =      0
   NDVTSHIFT =      0
   PDVTSHIFT =      0
   LPHIBE =      0
   NPHIBE =      0
   PPHIBE =      0
   LK0 =      0
   NK0 =      0
   PK0 =      0
   LK0SI =      0
   NK0SI =      0
   PK0SI =      0
   LK1 =      0
   NK1 =      0
   PK1 =      0
   LK1SAT =      0
   NK1SAT =      0
   PK1SAT =      0
   LDVTB =      0
   NDVTB =      0
   PDVTB =      0
   LLPEB =      0
   NLPEB =      0
   PLPEB =      0
   LQMFACTOR =      0
   NQMFACTOR =      0
   PQMFACTOR =      0
   LQMTCENIV =      0
   NQMTCENIV =      0
   PQMTCENIV =      0
   LQMTCENCV =      0
   NQMTCENCV =      0
   PQMTCENCV =      0
   LQMTCENCVA =      0
   NQMTCENCVA =      0
   PQMTCENCVA =      0
   LVSAT =      0
   NVSAT =      0
   PVSAT =      0
   LVSAT1 =      0
   NVSAT1 =      0
   PVSAT1 =      0
   LVSAT1R =      0
   NVSAT1R =      0
   PVSAT1R =      0
   LPSAT =      0
   NPSAT =      0
   PPSAT =      0
   LDELTAVSAT =      0
   NDELTAVSAT =      0
   PDELTAVSAT =      0
   LKSATIV =      0
   NKSATIV =      0
   PKSATIV =      0
   LVSATCV =      0
   NVSATCV =      0
   PVSATCV =      0
   LMEXP =      0
   NMEXP =      0
   PMEXP =      0
   LPTWG =      0
   NPTWG =      0
   PPTWG =      0
   LPTWGR =      0
   NPTWGR =      0
   PPTWGR =      0
   LU0 =      0
   NU0 =      0
   PU0 =      0
   LETAMOB =      0
   NETAMOB =      0
   PETAMOB =      0
   LUP =      0
   NUP =      0
   PUP =      0
   LUA =      0
   NUA =      0
   PUA =      0
   LUC =      0
   NUC =      0
   PUC =      0
   LEU =      0
   NEU =      0
   PEU =      0
   LUD =      0
   NUD =      0
   PUD =      0
   LUCS =      0
   NUCS =      0
   PUCS =      0
   LPCLM =      0
   NPCLM =      0
   PPCLM =      0
   LPCLMG =      0
   NPCLMG =      0
   PPCLMG =      0
   LPCLMCV =      0
   NPCLMCV =      0
   PPCLMCV =      0
   LA1 =      0
   NA1 =      0
   PA1 =      0
   LA2 =      0
   NA2 =      0
   PA2 =      0
   LRDSW =    0.2
   NRDSW =      0
   PRDSW =      0
   LRSW =      0
   NRSW =      0
   PRSW =      0
   LRDW =      0
   NRDW =      0
   PRDW =      0
   LPRWGS =      0
   NPRWGS =      0
   PPRWGS =      0
   LPRWGD =      0
   NPRWGD =      0
   PPRWGD =      0
   LWR =      0
   NWR =      0
   PWR =      0
   LPDIBL1 =      0
   NPDIBL1 =      0
   PPDIBL1 =      0
   LPDIBL1R =      0
   NPDIBL1R =      0
   PPDIBL1R =      0
   LPDIBL2 =      0
   NPDIBL2 =      0
   PPDIBL2 =      0
   LDROUT =      0
   NDROUT =      0
   PDROUT =      0
   LPVAG =      0
   NPVAG =      0
   PPVAG =      0
   LAIGBINV =      0
   NAIGBINV =      0
   PAIGBINV =      0
   LBIGBINV =      0
   NBIGBINV =      0
   PBIGBINV =      0
   LCIGBINV =      0
   NCIGBINV =      0
   PCIGBINV =      0
   LEIGBINV =      0
   NEIGBINV =      0
   PEIGBINV =      0
   LNIGBINV =      0
   NNIGBINV =      0
   PNIGBINV =      0
   LAIGBACC =      0
   NAIGBACC =      0
   PAIGBACC =      0
   LBIGBACC =      0
   NBIGBACC =      0
   PBIGBACC =      0
   LCIGBACC =      0
   NCIGBACC =      0
   PCIGBACC =      0
   LNIGBACC =      0
   NNIGBACC =      0
   PNIGBACC =      0
   LAIGC =      0
   NAIGC =      0
   PAIGC =      0
   LBIGC =      0
   NBIGC =      0
   PBIGC =      0
   LCIGC =      0
   NCIGC =      0
   PCIGC =      0
   LPIGCD =      0
   NPIGCD =      0
   PPIGCD =      0
   LAIGS =      0
   NAIGS =      0
   PAIGS =      0
   LBIGS =      0
   NBIGS =      0
   PBIGS =      0
   LCIGS =      0
   NCIGS =      0
   PCIGS =      0
   LAIGD =      0
   NAIGD =      0
   PAIGD =      0
   LBIGD =      0
   NBIGD =      0
   PBIGD =      0
   LCIGD =      0
   NCIGD =      0
   PCIGD =      0
   LNTOX =      0
   NNTOX =      0
   PNTOX =      0
   LPOXEDGE =      0
   NPOXEDGE =      0
   PPOXEDGE =      0
   LAGISL =      0
   NAGISL =      0
   PAGISL =      0
   LBGISL =      0
   NBGISL =      0
   PBGISL =      0
   LCGISL =      0
   NCGISL =      0
   PCGISL =      0
   LEGISL =      0
   NEGISL =      0
   PEGISL =      0
   LPGISL =      0
   NPGISL =      0
   PPGISL =      0
   LAGIDL =      0
   NAGIDL =      0
   PAGIDL =      0
   LBGIDL =      0
   NBGIDL =      0
   PBGIDL =      0
   LCGIDL =      0
   NCGIDL =      0
   PCGIDL =      0
   LEGIDL =      0
   NEGIDL =      0
   PEGIDL =      0
   LPGIDL =      0
   NPGIDL =      0
   PPGIDL =      0
   LALPHA0 =      0
   NALPHA0 =      0
   PALPHA0 =      0
   LALPHA1 =      0
   NALPHA1 =      0
   PALPHA1 =      0
   LBETA0 =      0
   NBETA0 =      0
   PBETA0 =      0
   LBETAII0 =      0
   NBETAII0 =      0
   PBETAII0 =      0
   LBETAII1 =      0
   NBETAII1 =      0
   PBETAII1 =      0
   LBETAII2 =      0
   NBETAII2 =      0
   PBETAII2 =      0
   LESATII =      0
   NESATII =      0
   PESATII =      0
   LLII =      0
   NLII =      0
   PLII =      0
   LSII0 =      0
   NSII0 =      0
   PSII0 =      0
   LSII1 =      0
   NSII1 =      0
   PSII1 =      0
   LSII2 =      0
   NSII2 =      0
   PSII2 =      0
   LSIID =      0
   NSIID =      0
   PSIID =      0
   LCFS =      0
   NCFS =      0
   PCFS =      0
   LCFD =      0
   NCFD =      0
   PCFD =      0
   LCOVS =      0
   NCOVS =      0
   PCOVS =      0
   LCOVD =      0
   NCOVD =      0
   PCOVD =      0
   LCGSL =      0
   NCGSL =      0
   PCGSL =      0
   LCGDL =      0
   NCGDL =      0
   PCGDL =      0
   LCKAPPAS =      0
   NCKAPPAS =      0
   PCKAPPAS =      0
   LCKAPPAD =      0
   NCKAPPAD =      0
   PCKAPPAD =      0
   LCGBL =      0
   NCGBL =      0
   PCGBL =      0
   LCKAPPAB =      0
   NCKAPPAB =      0
   PCKAPPAB =      0
   LNTGEN =      0
   NNTGEN =      0
   PNTGEN =      0
   LAIGEN =      0
   NAIGEN =      0
   PAIGEN =      0
   LBIGEN =      0
   NBIGEN =      0
   PBIGEN =      0
   LXRCRG1 =      0
   NXRCRG1 =      0
   PXRCRG1 =      0
   LXRCRG2 =      0
   NXRCRG2 =      0
   PXRCRG2 =      0
   LINTNOI =      0
   LUTE =      0
   NUTE =      0
   PUTE =      0
   LUTL =      0
   NUTL =      0
   PUTL =      0
   LEMOBT =      0
   NEMOBT =      0
   PEMOBT =      0
   LUA1 =      0
   NUA1 =      0
   PUA1 =      0
   LUC1 =      0
   NUC1 =      0
   PUC1 =      0
   LUD1 =      0
   NUD1 =      0
   PUD1 =      0
   LUCSTE =      0
   NUCSTE =      0
   PUCSTE =      0
   LPTWGT =      0
   NPTWGT =      0
   PPTWGT =      0
   LAT =      0
   NAT =      0
   PAT =      0
   LSTTHETASAT =      0
   NSTTHETASAT =      0
   PSTTHETASAT =      0
   LPRT =      0
   NPRT =      0
   PPRT =      0
   LKT1 =      0
   NKT1 =      0
   PKT1 =      0
   LTSS =      0
   NTSS =      0
   PTSS =      0
   LIIT =      0
   NIIT =      0
   PIIT =      0
   LTII =      0
   NTII =      0
   PTII =      0
   LTGIDL =      0
   NTGIDL =      0
   PTGIDL =      0
   LIGT =      0
   NIGT =      0
   PIGT =      0
   Imin =  1e-15
   K01 =      0
   K0SI1 =      0
   K1SI =      1
   K1SI1 =      0
   K11 =      0
   K1SAT1 =      0
   DELTAVSATCV =   0.28
   PSATCV =      2
   APSATCV =      0
   BPSATCV =      1
   A11 =      0
   A21 =      0
   AIGBINV1 =      0
   AIGBACC1 =      0
   AIGC1 =      0
   AIGS1 =      0
   AIGD1 =      0
   TOXG = 2.1e-09
   ALPHA01 =      0
   ALPHA11 =      0
   ALPHAII0 =      0
   ALPHAII01 =      0
   ALPHAII1 =      0
   ALPHAII11 =      0
   LK01 =      0
   NK01 =      0
   PK01 =      0
   LK0SI1 =      0
   NK0SI1 =      0
   PK0SI1 =      0
   LK1SI =      0
   NK1SI =      0
   PK1SI =      0
   LK1SI1 =      0
   NK1SI1 =      0
   PK1SI1 =      0
   LK11 =      0
   NK11 =      0
   PK11 =      0
   LK1SAT1 =      0
   NK1SAT1 =      0
   PK1SAT1 =      0
   LPSATCV =      0
   NPSATCV =      0
   PPSATCV =      0
   LDELTAVSATCV =      0
   NDELTAVSATCV =      0
   PDELTAVSATCV =      0
   LA11 =      0
   NA11 =      0
   PA11 =      0
   LA21 =      0
   NA21 =      0
   PA21 =      0
   LAIGBINV1 =      0
   NAIGBINV1 =      0
   PAIGBINV1 =      0
   LAIGBACC1 =      0
   NAIGBACC1 =      0
   PAIGBACC1 =      0
   LAIGC1 =      0
   NAIGC1 =      0
   PAIGC1 =      0
   LAIGS1 =      0
   NAIGS1 =      0
   PAIGS1 =      0
   LAIGD1 =      0
   NAIGD1 =      0
   PAIGD1 =      0
   LALPHAII0 =      0
   NALPHAII0 =      0
   PALPHAII0 =      0
   LALPHAII1 =      0
   NALPHAII1 =      0
   PALPHAII1 =      0
   CGEO1SW = 0
   NBODYN1 =      0
   NBODYN2 =  1e+05
   PHIGL =      0
   PHIGN1 =      0
   PHIGN2 =  1e+05
   CDSCN1 =      0
   CDSCN2 =  1e+05
   CDSCDN1 =      0
   CDSCDN2 =  1e+05
   CDSCDRN1 =      0
   CDSCDRN2 =  1e+05
   DVT1SS =   0.48
   ETA0N1 =      0
   ETA0N2 =  1e+05
   TETA0 =      0
   TETA0R =      0
   DVTP0 =      0
   DVTP1 =      0
   VSATN1 =      0
   VSATN2 =  1e+05
   VSAT1N1 =      0
   VSAT1N2 =  1e+05
   VSAT1RN1 =      0
   VSAT1RN2 =  1e+05
   MEXPR =      4
   AMEXPR =      0
   BMEXPR =      1
   TMEXPR =      0
   U0N1 =      0
   U0N2 =  1e+05
   CHARGEWF =      0
   LDVT1SS =      0
   NDVT1SS =      0
   PDVT1SS =      0
   LMEXPR =      0
   NMEXPR =      0
   PMEXPR =      0
   Lmin =      0 m
   Lmax =      1 m
   NFINmin =      0
   NFINmax =      1
 Model Name: pmos_rvt
 BSIM-MG BULK Model(Level72)
   VERSION =    107
   L = 2.1e-08
   D =  4e-08
   TFIN = 6.5e-09
   FPITCH = 2.7e-08
   NF = 1
   NFIN =      1
   NGCON = 1
   ASEO =      0
   ADEO =      0
   PSEO =      0
   PDEO =      0
   ASEJ =      0
   ADEJ =      0
   PSEJ =      0
   PDEJ =      0
   CGSP =      0
   CGDP =      0
   CDSP =      0
   NRS =      0
   NRD =      0
   LRSD = 2.1e-08
   XL =  1e-09
   DTEMP =      0
   DELVTRAND =      0
   U0MULT =      1
   IDS0MULT =      1
   DEVTYPE = 0
   BULKMOD = 1
   COREMOD = 0
   GEOMOD = 1
   RDSMOD = 0
   ASYMMOD = 0
   IGCMOD = 1
   IGBMOD = 0
   GIDLMOD = 1
   IIMOD = 0
   NQSMOD = 0
   SHMOD = 0
   RGATEMOD = 0
   RGEOMOD = 0
   CGEOMOD = 0
   CAPMOD = 0
   LINT = -2.5e-09
   LL =      0
   LLN =      1
   DLC =      0
   DLCACC =      0
   DLBIN =      0
   LLC =      0
   EOT =  1e-09
   TOXP = 2.1e-09
   EOTBOX = 1.4e-07
   HFIN = 3.2e-08
   FECH =      1
   DELTAW =      0
   FECHCV =      1
   DELTAWCV =      0
   NBODY =  1e+22
   NSD =  2e+26
   PHIG =  4.811
   EPSROX =    3.9
   EPSRSUB =   11.9
   EASUB =   4.05
   NI0SUB = 1.1e+16
   BG0SUB =   1.17
   NC0SUB = 2.86e+25
   NGATE =      0
   CIT =      0
   CDSC = 0.003469
   CDSCD = 0.001486
   CDSCDR = 0.001486
   DVT0 =   0.05
   DVT1 =    0.4
   PHIN =   0.05
   ETA0 =   0.09
   ETA0R =   0.09
   DSUB =   0.24
   K1RSCE =      0
   LPE0 =      0
   DVTSHIFT =      0
   PHIBE =    0.7
   K0 =      0
   K0SI =      1
   K1 =      0
   K1SAT =      0
   QMFACTOR =      0
   QMTCENIV =      0
   QMTCENCV =      0
   QMTCENCVA =      0
   AQMTCEN =      0
   BQMTCEN = 1.2e-08
   ETAQM =   0.54
   QM0 = 2.183e-12
   PQM =   0.66
   QM0ACC =  0.001
   PQMACC =   0.66
   VSAT =  6e+04
   AVSAT =      0
   BVSAT =  1e-07
   VSAT1 =  6e+04
   VSAT1R =  6e+04
   AVSAT1 =      0
   BVSAT1 =  1e-07
   DELTAVSAT =   0.22
   PSAT =      2
   APSAT =      0
   BPSAT =      1
   KSATIV =  1.592
   VSATCV =  6e+04
   AVSATCV =      0
   BVSATCV =  1e-07
   MEXP =  2.491
   AMEXP =      0
   BMEXP =      1
   PTWG =     25
   PTWGR =     25
   APTWG =      0
   BPTWG =  1e-07
   AT =  0.001
   TMEXP =      0
   PTWGT =  0.004
   U0 = 0.0209
   ETAMOB =      4
   UP =      0
   LPA =      1
   UA =  1.133
   AUA =      0
   BUA =  1e-07
   UC =      0
   EU =   0.05
   AEU =      0
   BEU =  1e-07
   UD = 0.0105
   AUD =      0
   BUD =  5e-08
   UCS = 0.2672
   UTE =   -1.2
   UTL =      0
   EMOBT =      0
   UA1 = 0.001032
   UC1 = 5.6e-11
   UD1 =      0
   UCSTE = -0.004775
   RDSWMIN =      0
   RDSW =    200
   ARDSW =      0
   BRDSW =  1e-07
   RSWMIN =      0
   RSW =     50
   ARSW =      0
   BRSW =  1e-07
   RDWMIN =      0
   RDW =     50
   ARDW =      0
   BRDW =  1e-07
   RSDR =      0
   RSDRR =      0
   RDDR =      0
   RDDRR =      0
   PRSDR =      1
   PRDDR =      1
   PRWGS =      0
   PRWGD =      0
   WR =      1
   PRT =      0
   TRSDR =      0
   TRDDR =      0
   PDIBL1 =    800
   PDIBL1R =    800
   PDIBL2 = 0.005704
   DROUT =   4.97
   PVAG =    200
   PCLM =   0.01
   APCLM =      0
   BPCLM =  1e-07
   PCLMG =      1
   PCLMCV =   0.01
   A1 =      0
   A2 =      0
   RGEXT =      0
   RGFIN =  0.001
   RSHS =      0
   RSHD =      0
   HEPI =  1e-08
   TSILI =  1e-08
   RHOC =  1e-12
   RHORSD =      1
   CRATIO =    0.5
   DELTAPRSD =      0
   SDTERM = 0
   LSP = 4.4e-09
   EPSRSP =    3.9
   TGATE =  3e-08
   TMASK =  3e-08
   ASILIEND =      0
   ARSDEND =      0
   PRSDEND =      0
   NSDE =  2e+25
   RGEOA =      1
   RGEOB =      0
   RGEOC =      0
   RGEOD =      0
   RGEOE =      0
   CGEOA =      1
   CGEOB =      0
   CGEOC =      0
   CGEOD =      0
   CGEOE =      1
   AIGBINV = 0.0111
   BIGBINV = 0.000949
   CIGBINV =  0.006
   EIGBINV =    1.1
   NIGBINV =      3
   AIGBACC = 0.0136
   BIGBACC = 0.00171
   CIGBACC =  0.075
   NIGBACC =      1
   AIGC =  0.007
   BIGC = 0.0015
   CIGC =      1
   PIGCD =      1
   DLCIGS =  5e-09
   AIGS =  0.006
   BIGS = 0.001944
   CIGS =      1
   DLCIGD =  5e-09
   AIGD =  0.006
   BIGD = 0.001944
   CIGD =      1
   TOXREF = 1.2e-09
   NTOX =      1
   POXEDGE =  1.152
   AGISL =  2e-12
   BGISL = 1.5e+08
   CGISL =    0.5
   EGISL =  1.142
   PGISL =      1
   AGIDL =  2e-12
   BGIDL = 1.5e+08
   CGIDL =    0.5
   EGIDL =  1.142
   PGIDL =      1
   ALPHA0 =      0
   ALPHA1 =      0
   BETA0 =      0
   BETAII0 =      0
   BETAII1 =      0
   BETAII2 =    0.1
   ESATII =  1e+07
   LII =  5e-10
   SII0 =    0.5
   SII1 =    0.1
   SII2 =      0
   SIID =      0
   EOTACC =  3e-10
   DELVFBACC =      0
   CFS =      0
   CFD =      0
   COVS =      0
   COVD =      0
   CGSO = 1.6e-10
   CGDO = 1.6e-10
   CGSL =      0
   CGDL =      0
   CKAPPAS =    0.6
   CKAPPAD =    0.6
   CGBO =      0
   CGBN =      0
   CGBL =      0
   CKAPPAB =    0.6
   CSDESW =      0
   CJS = 0.0005
   CJD = 0.0005
   CJSWS =  5e-10
   CJSWD =  5e-10
   CJSWGS =      0
   CJSWGD =      0
   PBS =      1
   PBD =      1
   PBSWS =      1
   PBSWD =      1
   PBSWGS =      1
   PBSWGD =      1
   MJS =    0.5
   MJD =    0.5
   MJSWS =   0.33
   MJSWD =   0.33
   MJSWGS =   0.33
   MJSWGD =   0.33
   SJS =      0
   SJD =      0
   SJSWS =      0
   SJSWD =      0
   SJSWGS =      0
   SJSWGD =      0
   MJS2 =  0.125
   MJD2 =  0.125
   MJSWS2 =  0.083
   MJSWD2 =  0.083
   MJSWGS2 =  0.083
   MJSWGD2 =  0.083
   JSS = 0.0001
   JSD = 0.0001
   JSWS =      0
   JSWD =      0
   JSWGS =      0
   JSWGD =      0
   NJS =      1
   NJD =      1
   IJTHSFWD =    0.1
   IJTHDFWD =    0.1
   IJTHSREV =    0.1
   IJTHDREV =    0.1
   BVS =     10
   BVD =     10
   XJBVS =      1
   XJBVD =      1
   JTSS =      0
   JTSD =      0
   JTSSWS =      0
   JTSSWD =      0
   JTSSWGS =      0
   JTSSWGD =      0
   JTWEFF =      0
   NJTS =     20
   NJTSD =     20
   NJTSSW =     20
   NJTSSWD =     20
   NJTSSWG =     20
   NJTSSWGD =     20
   VTSS =     10
   VTSD =     10
   VTSSWS =     10
   VTSSWD =     10
   VTSSWGS =     10
   VTSSWGD =     10
   LINTIGEN =      0
   NTGEN =      1
   AIGEN =      0
   BIGEN =      0
   XRCRG1 =     12
   XRCRG2 =      1
   NSEG = 5
   EF =      1
   EM = 4.1e+07
   NOIA = 6.25e+39
   NOIB = 3.125e+24
   NOIC = 8.75e+07
   NTNOI =      1
   TNOM =     25
   TBGASUB = 0.000473
   TBGBSUB =    636
   KT1 =      0
   KT1L =      0
   TSS =      0
   IIT =   -0.5
   TII =      0
   TGIDL = -0.007
   IGT =    2.5
   TCJ =      0
   TCJSW =      0
   TCJSWG =      0
   TPB =      0
   TPBSW =      0
   TPBSWG =      0
   XTIS =      3
   XTID =      3
   XTSS =   0.02
   XTSD =   0.02
   XTSSWS =   0.02
   XTSSWD =   0.02
   XTSSWGS =   0.02
   XTSSWGD =   0.02
   TNJTS =      0
   TNJTSD =      0
   TNJTSSW =      0
   TNJTSSWD =      0
   TNJTSSWG =      0
   TNJTSSWGD =      0
   RTH0 =   0.15
   CTH0 = 1.243e-06
   WTH0 = 2.6e-07
   LNBODY =      0
   NNBODY =      0
   PNBODY =      0
   LPHIG =      0
   NPHIG =      0
   PPHIG =      0
   LNGATE =      0
   NNGATE =      0
   PNGATE =      0
   LCIT =      0
   NCIT =      0
   PCIT =      0
   LCDSC =      0
   NCDSC =      0
   PCDSC =      0
   LCDSCD =      0
   NCDSCD =      0
   PCDSCD =      0
   LCDSCDR =      0
   NCDSCDR =      0
   PCDSCDR =      0
   LDVT0 =      0
   NDVT0 =      0
   PDVT0 =      0
   LDVT1 =      0
   NDVT1 =      0
   PDVT1 =      0
   LPHIN =      0
   NPHIN =      0
   PPHIN =      0
   LETA0 =      0
   NETA0 =      0
   PETA0 =      0
   LETA0R =      0
   NETA0R =      0
   PETA0R =      0
   LDSUB =      0
   NDSUB =      0
   PDSUB =      0
   LK1RSCE =      0
   NK1RSCE =      0
   PK1RSCE =      0
   LLPE0 =      0
   NLPE0 =      0
   PLPE0 =      0
   LDVTSHIFT =      0
   NDVTSHIFT =      0
   PDVTSHIFT =      0
   LPHIBE =      0
   NPHIBE =      0
   PPHIBE =      0
   LK0 =      0
   NK0 =      0
   PK0 =      0
   LK0SI =      0
   NK0SI =      0
   PK0SI =      0
   LK1 =      0
   NK1 =      0
   PK1 =      0
   LK1SAT =      0
   NK1SAT =      0
   PK1SAT =      0
   LDVTB =      0
   NDVTB =      0
   PDVTB =      0
   LLPEB =      0
   NLPEB =      0
   PLPEB =      0
   LQMFACTOR =      0
   NQMFACTOR =      0
   PQMFACTOR =      0
   LQMTCENIV =      0
   NQMTCENIV =      0
   PQMTCENIV =      0
   LQMTCENCV =      0
   NQMTCENCV =      0
   PQMTCENCV =      0
   LQMTCENCVA =      0
   NQMTCENCVA =      0
   PQMTCENCVA =      0
   LVSAT =   1441
   NVSAT =      0
   PVSAT =      0
   LVSAT1 =   1441
   NVSAT1 =      0
   PVSAT1 =      0
   LVSAT1R =   1441
   NVSAT1R =      0
   PVSAT1R =      0
   LPSAT =      0
   NPSAT =      0
   PPSAT =      0
   LDELTAVSAT =      0
   NDELTAVSAT =      0
   PDELTAVSAT =      0
   LKSATIV =      0
   NKSATIV =      0
   PKSATIV =      0
   LVSATCV =      0
   NVSATCV =      0
   PVSATCV =      0
   LMEXP =      0
   NMEXP =      0
   PMEXP =      0
   LPTWG =      0
   NPTWG =      0
   PPTWG =      0
   LPTWGR =      0
   NPTWGR =      0
   PPTWGR =      0
   LU0 =      0
   NU0 =      0
   PU0 =      0
   LETAMOB =      0
   NETAMOB =      0
   PETAMOB =      0
   LUP =      0
   NUP =      0
   PUP =      0
   LUA =      0
   NUA =      0
   PUA =      0
   LUC =      0
   NUC =      0
   PUC =      0
   LEU =      0
   NEU =      0
   PEU =      0
   LUD =      0
   NUD =      0
   PUD =      0
   LUCS =      0
   NUCS =      0
   PUCS =      0
   LPCLM =      0
   NPCLM =      0
   PPCLM =      0
   LPCLMG =      0
   NPCLMG =      0
   PPCLMG =      0
   LPCLMCV =      0
   NPCLMCV =      0
   PPCLMCV =      0
   LA1 =      0
   NA1 =      0
   PA1 =      0
   LA2 =      0
   NA2 =      0
   PA2 =      0
   LRDSW =    1.3
   NRDSW =      0
   PRDSW =      0
   LRSW =      0
   NRSW =      0
   PRSW =      0
   LRDW =      0
   NRDW =      0
   PRDW =      0
   LPRWGS =      0
   NPRWGS =      0
   PPRWGS =      0
   LPRWGD =      0
   NPRWGD =      0
   PPRWGD =      0
   LWR =      0
   NWR =      0
   PWR =      0
   LPDIBL1 =      0
   NPDIBL1 =      0
   PPDIBL1 =      0
   LPDIBL1R =      0
   NPDIBL1R =      0
   PPDIBL1R =      0
   LPDIBL2 =      0
   NPDIBL2 =      0
   PPDIBL2 =      0
   LDROUT =      0
   NDROUT =      0
   PDROUT =      0
   LPVAG =      0
   NPVAG =      0
   PPVAG =      0
   LAIGBINV =      0
   NAIGBINV =      0
   PAIGBINV =      0
   LBIGBINV =      0
   NBIGBINV =      0
   PBIGBINV =      0
   LCIGBINV =      0
   NCIGBINV =      0
   PCIGBINV =      0
   LEIGBINV =      0
   NEIGBINV =      0
   PEIGBINV =      0
   LNIGBINV =      0
   NNIGBINV =      0
   PNIGBINV =      0
   LAIGBACC =      0
   NAIGBACC =      0
   PAIGBACC =      0
   LBIGBACC =      0
   NBIGBACC =      0
   PBIGBACC =      0
   LCIGBACC =      0
   NCIGBACC =      0
   PCIGBACC =      0
   LNIGBACC =      0
   NNIGBACC =      0
   PNIGBACC =      0
   LAIGC =      0
   NAIGC =      0
   PAIGC =      0
   LBIGC =      0
   NBIGC =      0
   PBIGC =      0
   LCIGC =      0
   NCIGC =      0
   PCIGC =      0
   LPIGCD =      0
   NPIGCD =      0
   PPIGCD =      0
   LAIGS =      0
   NAIGS =      0
   PAIGS =      0
   LBIGS =      0
   NBIGS =      0
   PBIGS =      0
   LCIGS =      0
   NCIGS =      0
   PCIGS =      0
   LAIGD =      0
   NAIGD =      0
   PAIGD =      0
   LBIGD =      0
   NBIGD =      0
   PBIGD =      0
   LCIGD =      0
   NCIGD =      0
   PCIGD =      0
   LNTOX =      0
   NNTOX =      0
   PNTOX =      0
   LPOXEDGE =      0
   NPOXEDGE =      0
   PPOXEDGE =      0
   LAGISL =      0
   NAGISL =      0
   PAGISL =      0
   LBGISL =      0
   NBGISL =      0
   PBGISL =      0
   LCGISL =      0
   NCGISL =      0
   PCGISL =      0
   LEGISL =      0
   NEGISL =      0
   PEGISL =      0
   LPGISL =      0
   NPGISL =      0
   PPGISL =      0
   LAGIDL =      0
   NAGIDL =      0
   PAGIDL =      0
   LBGIDL =      0
   NBGIDL =      0
   PBGIDL =      0
   LCGIDL =      0
   NCGIDL =      0
   PCGIDL =      0
   LEGIDL =      0
   NEGIDL =      0
   PEGIDL =      0
   LPGIDL =      0
   NPGIDL =      0
   PPGIDL =      0
   LALPHA0 =      0
   NALPHA0 =      0
   PALPHA0 =      0
   LALPHA1 =      0
   NALPHA1 =      0
   PALPHA1 =      0
   LBETA0 =      0
   NBETA0 =      0
   PBETA0 =      0
   LBETAII0 =      0
   NBETAII0 =      0
   PBETAII0 =      0
   LBETAII1 =      0
   NBETAII1 =      0
   PBETAII1 =      0
   LBETAII2 =      0
   NBETAII2 =      0
   PBETAII2 =      0
   LESATII =      0
   NESATII =      0
   PESATII =      0
   LLII =      0
   NLII =      0
   PLII =      0
   LSII0 =      0
   NSII0 =      0
   PSII0 =      0
   LSII1 =      0
   NSII1 =      0
   PSII1 =      0
   LSII2 =      0
   NSII2 =      0
   PSII2 =      0
   LSIID =      0
   NSIID =      0
   PSIID =      0
   LCFS =      0
   NCFS =      0
   PCFS =      0
   LCFD =      0
   NCFD =      0
   PCFD =      0
   LCOVS =      0
   NCOVS =      0
   PCOVS =      0
   LCOVD =      0
   NCOVD =      0
   PCOVD =      0
   LCGSL =      0
   NCGSL =      0
   PCGSL =      0
   LCGDL =      0
   NCGDL =      0
   PCGDL =      0
   LCKAPPAS =      0
   NCKAPPAS =      0
   PCKAPPAS =      0
   LCKAPPAD =      0
   NCKAPPAD =      0
   PCKAPPAD =      0
   LCGBL =      0
   NCGBL =      0
   PCGBL =      0
   LCKAPPAB =      0
   NCKAPPAB =      0
   PCKAPPAB =      0
   LNTGEN =      0
   NNTGEN =      0
   PNTGEN =      0
   LAIGEN =      0
   NAIGEN =      0
   PAIGEN =      0
   LBIGEN =      0
   NBIGEN =      0
   PBIGEN =      0
   LXRCRG1 =      0
   NXRCRG1 =      0
   PXRCRG1 =      0
   LXRCRG2 =      0
   NXRCRG2 =      0
   PXRCRG2 =      0
   LINTNOI =      0
   LUTE =      0
   NUTE =      0
   PUTE =      0
   LUTL =      0
   NUTL =      0
   PUTL =      0
   LEMOBT =      0
   NEMOBT =      0
   PEMOBT =      0
   LUA1 =      0
   NUA1 =      0
   PUA1 =      0
   LUC1 =      0
   NUC1 =      0
   PUC1 =      0
   LUD1 =      0
   NUD1 =      0
   PUD1 =      0
   LUCSTE =      0
   NUCSTE =      0
   PUCSTE =      0
   LPTWGT =      0
   NPTWGT =      0
   PPTWGT =      0
   LAT =      0
   NAT =      0
   PAT =      0
   LSTTHETASAT =      0
   NSTTHETASAT =      0
   PSTTHETASAT =      0
   LPRT =      0
   NPRT =      0
   PPRT =      0
   LKT1 =      0
   NKT1 =      0
   PKT1 =      0
   LTSS =      0
   NTSS =      0
   PTSS =      0
   LIIT =      0
   NIIT =      0
   PIIT =      0
   LTII =      0
   NTII =      0
   PTII =      0
   LTGIDL =      0
   NTGIDL =      0
   PTGIDL =      0
   LIGT =      0
   NIGT =      0
   PIGT =      0
   Imin =  1e-15
   K01 =      0
   K0SI1 =      0
   K1SI =      1
   K1SI1 =      0
   K11 =      0
   K1SAT1 =      0
   DELTAVSATCV =   0.22
   PSATCV =      2
   APSATCV =      0
   BPSATCV =      1
   A11 =      0
   A21 =      0
   AIGBINV1 =      0
   AIGBACC1 =      0
   AIGC1 =      0
   AIGS1 =      0
   AIGD1 =      0
   TOXG = 2.1e-09
   ALPHA01 =      0
   ALPHA11 =      0
   ALPHAII0 =      0
   ALPHAII01 =      0
   ALPHAII1 =      0
   ALPHAII11 =      0
   LK01 =      0
   NK01 =      0
   PK01 =      0
   LK0SI1 =      0
   NK0SI1 =      0
   PK0SI1 =      0
   LK1SI =      0
   NK1SI =      0
   PK1SI =      0
   LK1SI1 =      0
   NK1SI1 =      0
   PK1SI1 =      0
   LK11 =      0
   NK11 =      0
   PK11 =      0
   LK1SAT1 =      0
   NK1SAT1 =      0
   PK1SAT1 =      0
   LPSATCV =      0
   NPSATCV =      0
   PPSATCV =      0
   LDELTAVSATCV =      0
   NDELTAVSATCV =      0
   PDELTAVSATCV =      0
   LA11 =      0
   NA11 =      0
   PA11 =      0
   LA21 =      0
   NA21 =      0
   PA21 =      0
   LAIGBINV1 =      0
   NAIGBINV1 =      0
   PAIGBINV1 =      0
   LAIGBACC1 =      0
   NAIGBACC1 =      0
   PAIGBACC1 =      0
   LAIGC1 =      0
   NAIGC1 =      0
   PAIGC1 =      0
   LAIGS1 =      0
   NAIGS1 =      0
   PAIGS1 =      0
   LAIGD1 =      0
   NAIGD1 =      0
   PAIGD1 =      0
   LALPHAII0 =      0
   NALPHAII0 =      0
   PALPHAII0 =      0
   LALPHAII1 =      0
   NALPHAII1 =      0
   PALPHAII1 =      0
   CGEO1SW = 0
   NBODYN1 =      0
   NBODYN2 =  1e+05
   PHIGL =      0
   PHIGN1 =      0
   PHIGN2 =  1e+05
   CDSCN1 =      0
   CDSCN2 =  1e+05
   CDSCDN1 =      0
   CDSCDN2 =  1e+05
   CDSCDRN1 =      0
   CDSCDRN2 =  1e+05
   DVT1SS =    0.4
   ETA0N1 =      0
   ETA0N2 =  1e+05
   TETA0 =      0
   TETA0R =      0
   DVTP0 =      0
   DVTP1 =      0
   VSATN1 =      0
   VSATN2 =  1e+05
   VSAT1N1 =      0
   VSAT1N2 =  1e+05
   VSAT1RN1 =      0
   VSAT1RN2 =  1e+05
   MEXPR =  2.491
   AMEXPR =      0
   BMEXPR =      1
   TMEXPR =      0
   U0N1 =      0
   U0N2 =  1e+05
   CHARGEWF =      0
   LDVT1SS =      0
   NDVT1SS =      0
   PDVT1SS =      0
   LMEXPR =      0
   NMEXPR =      0
   PMEXPR =      0
   Lmin =      0 m
   Lmax =      1 m
   NFINmin =      0
   NFINmax =      1
  **info** (6t.txt:33) DC voltage reset to initial transient source value              in source        0:vbit                new dc=  0.0000D+00


 **info** set option symb=1 internally to help for convergence.
 *****************************************************************
 ******  option summary
 ******
 runlvl  = 3         bypass  = 2
  Opening plot unit= 15
 file=6t.pa0

1****** HSPICE -- H-2013.03-SP1 32-BIT (May 29 2013) RHEL32 ******
 ******
 '6t 0.5ghz'

  ******  operating point information tnom=  25.000 temp=  25.000 *****
 ***** operating point status is voltage   simulation time is     0.
    node    =voltage      node    =voltage      node    =voltage

 +0:bit     =   0.      0:bl      = 539.1206m 0:blb     = 642.7974m
 +0:out     = 539.1206m 0:outb    = 642.7974m 0:pre     =   0.
 +0:q       = 700.0000m 0:qb      = 357.2361f 0:sae     =   0.
 +0:vdd     = 700.0000m 0:we      = 700.0000m 0:wl      =   0.
 +2:q       = 680.0298m 2:q0      = 659.7447m 2:qb      = 680.0298m
 +3:bitb    = 699.9998m 3:web     = 116.0307n 3:xe1     = 208.5682m
 +3:xe2     = 672.1165m

 ******
 '6t 0.5ghz'

  ******  transient analysis tnom=  25.000 temp=  25.000 *****
x

        time    voltage      voltage      voltage      voltage
                     q           qb           bl           blb
    0.          700.0000m      0.         539.1206m    642.7974m
   10.00000p    699.9998m      0.         539.1206m    642.7974m
   20.00000p    699.9998m      0.         539.1206m    642.7974m
   30.00000p    699.9998m      0.         539.1206m    642.7974m
   40.00000p    699.9998m      0.         539.1206m    642.7974m
   50.00000p    699.9998m      0.         539.1206m    642.7974m
   60.00000p    699.9998m      0.         539.1206m    642.7974m
   70.00000p    699.9998m      0.         539.1206m    642.7974m
   80.00000p    699.9998m      0.         539.1206m    642.7974m
   90.00000p    699.9998m      0.         539.1206m    642.7974m
  100.00000p    699.9998m      0.         539.1206m    642.7974m
  110.00000p    699.9998m      0.         539.1206m    642.7974m
  120.00000p    699.9998m      0.         539.1206m    642.7974m
  130.00000p    699.9998m      0.         539.1206m    642.7974m
  140.00000p    699.9998m      0.         539.1206m    642.7974m
  150.00000p    699.9998m      0.         539.1206m    642.7974m
  160.00000p    699.9998m      0.         539.1206m    642.7974m
  170.00000p    699.9998m      0.         539.1206m    642.7974m
  180.00000p    699.9998m      0.         539.1206m    642.7974m
  190.00000p    699.9998m      0.         539.1206m    642.7974m
  200.00000p    699.9998m      0.         539.1206m    642.7974m
  210.00000p    699.9998m      0.         539.1206m    642.7974m
  220.00000p    699.9998m      0.         539.1206m    642.7974m
  230.00000p    699.9998m      0.         539.1206m    642.7974m
  240.00000p    699.9998m      0.         539.1206m    642.7974m
  250.00000p    699.9998m      0.         539.1206m    642.7974m
  260.00000p    699.9998m      0.         539.1206m    642.7974m
  270.00000p    699.9998m      0.         539.1206m    642.7974m
  280.00000p    699.9998m      0.         539.1206m    642.7974m
  290.00000p    699.9998m      0.         499.2256m    654.4877m
  300.00000p    699.9998m      0.         155.6610m    680.2189m
  310.00000p    699.9998m      0.          58.4720m    684.3899m
  320.00000p    699.9997m      0.          35.0957m    689.2082m
  330.00000p    699.9997m      0.          23.9960m    692.4903m
  340.00000p    699.9997m      0.          17.9183m    694.6729m
  350.00000p    699.9997m      0.          13.3769m    696.5043m
  360.00000p    699.9997m      0.          10.7053m    697.5775m
  370.00000p    699.9997m      0.           8.9658m    698.2727m
  380.00000p    699.9997m      0.           7.2262m    698.9680m
  390.00000p    699.9997m      0.           6.3071m    699.2743m
  400.00000p    699.9997m      0.           5.6355m    699.4632m
  410.00000p    699.9997m      0.           4.9639m    699.6522m
  420.00000p    699.9997m      0.           4.2922m    699.8411m
  430.00000p    699.9997m      0.           3.8289m    699.9391m
  440.00000p    699.9997m      0.           3.5722m    699.9468m
  450.00000p    699.9997m      0.           3.3156m    699.9546m
  460.00000p    699.9997m      0.           3.0590m    699.9623m
  470.00000p    699.9997m      0.           2.8024m    699.9700m
  480.00000p    699.9996m      0.           2.5458m    699.9777m
  490.00000p    699.9996m      0.           2.3488m    699.9841m
  500.00000p    699.9996m      0.           2.2452m    699.9883m
  510.00000p    699.9996m      0.           2.1416m    699.9924m
  520.00000p    699.9996m      0.           2.0380m    699.9966m
  530.00000p    699.9996m      0.           1.9344m    700.0008m
  540.00000p    699.9996m      0.           1.8308m    700.0050m
  550.00000p    699.9996m      0.           1.7273m    700.0092m
  560.00000p    699.9996m      0.           1.6237m    700.0134m
  570.00000p    699.9996m      0.           1.5201m    700.0176m
  580.00000p    699.9996m      0.           1.4382m    700.0192m
  590.00000p    699.9996m      0.           1.3975m    700.0158m
  600.00000p    699.9996m      0.           1.3569m    700.0124m
  610.00000p    699.9996m      0.           1.3162m    700.0090m
  620.00000p    699.9996m      0.           1.2756m    700.0056m
  630.00000p    699.9996m      0.           1.2349m    700.0022m
  640.00000p    699.9996m      0.           1.1943m    699.9988m
  650.00000p    699.9996m      0.           1.1536m    699.9954m
  660.00000p    699.9996m      0.           1.1130m    699.9920m
  670.00000p    699.9996m      0.           1.0723m    699.9886m
  680.00000p    699.9996m      0.           1.0317m    699.9852m
  690.00000p    699.9996m      0.         991.0091u    699.9818m
  700.00000p    699.9996m      0.         950.3567u    699.9784m
  710.00000p    699.9996m      0.         923.7166u    699.9791m
  720.00000p    699.9996m      0.         904.0807u    699.9820m
  730.00000p    699.9996m      0.         884.4449u    699.9848m
  740.00000p    699.9996m      0.         864.8091u    699.9877m
  750.00000p    699.9996m      0.         845.1732u    699.9906m
  760.00000p    699.9996m      0.         825.5374u    699.9934m
  770.00000p    699.9996m      0.         805.9015u    699.9963m
  780.00000p    699.9996m      0.         786.2657u    699.9991m
  790.00000p    699.9996m      0.         766.6298u    700.0020m
  800.00000p    699.9996m      0.         746.9940u    700.0049m
  810.00000p    699.9996m      0.         727.3581u    700.0077m
  820.00000p    699.9996m      0.         707.7223u    700.0106m
  830.00000p    699.9996m      0.         688.0864u    700.0134m
  840.00000p    699.9996m      0.         668.4506u    700.0163m
  850.00000p    699.9996m      0.         648.8147u    700.0192m
  860.00000p    702.6880m      2.1899m      3.9246m    702.0100m
  870.00000p    665.0425m     45.1814m     67.2045m    655.2599m
  880.00000p    457.6727m    204.7810m    197.3953m    553.7055m
  890.00000p     31.2422m    648.2066m     28.0173m    646.7741m
  900.00000p     50.7491u    699.9290m    431.6299u    662.7438m
  910.00000p     53.8448u    699.9312m    392.4161u    673.9613m
  920.00000p    152.9516u    700.0059m    279.2346u    681.4295m
  930.00000p    261.5536u    700.0887m    152.3208u    687.3393m
  940.00000p    162.0301u    700.0166m    252.4157u    690.6386m
  950.00000p     62.5066u    699.9446m    352.5106u    693.9380m
  960.00000p      7.8469u    699.9058m    404.5785u    696.5195m
  970.00000p     68.0583u    699.9520m    333.6757u    697.2627m
  980.00000p    128.2697u    699.9981m    262.7729u    698.0059m
  990.00000p    188.4812u    700.0443m    191.8701u    698.7492m
    1.00000n    248.6926u    700.0904m    120.9673u    699.4924m
    1.01000n    234.0619u    700.0810m    130.6026u    699.7794m
    1.02000n    184.3399u    700.0456m    177.9998u    699.8526m
    1.03000n    134.6180u    700.0101m    225.3969u    699.9258m
    1.04000n     84.8961u    699.9747m    272.7941u    699.9989m
    1.05000n     35.1742u    699.9393m    320.1913u    700.0721m
    1.06000n    -14.5477u    699.9038m    367.5885u    700.1452m
    1.07000n     -1.3174u    699.9148m    348.7842u    700.1395m
    1.08000n     32.2149u    699.9407m    308.6300u    700.1083m
    1.09000n     65.7472u    699.9666m    268.4759u    700.0771m
    1.10000n     99.2794u    699.9925m    228.3217u    700.0459m
    1.11000n    132.8117u    700.0184m    188.1676u    700.0147m
    1.12000n    166.3440u    700.0443m    148.0134u    699.9836m
    1.13000n    199.8763u    700.0702m    107.8593u    699.9524m
    1.14000n    233.4086u    700.0961m     67.7051u    699.9212m
    1.15000n     -6.9639m    696.7174m     -9.2091m    697.0779m
    1.16000n     -2.4235m    697.1772m     -4.3628m    696.0032m
    1.17000n     15.8009u    700.0147m    398.2747u    698.1943m
    1.18000n     -4.1116u    699.9961m    390.5207u    698.7262m
    1.19000n     12.2989u    700.0106m    387.0133u    699.1572m
    1.20000n      4.7392u    700.0038m    381.8899u    699.3549m
    1.21000n     -2.8206u    699.9971m    376.7665u    699.5525m
    1.22000n    -10.3803u    699.9903m    371.6431u    699.7502m
    1.23000n    -10.4552u    699.9903m    367.5075u    699.8242m
    1.24000n     -7.7289u    699.9927m    363.7416u    699.8519m
    1.25000n     -5.0027u    699.9952m    359.9757u    699.8797m
    1.26000n     -2.2764u    699.9976m    356.2098u    699.9074m
    1.27000n      0.         700.0000m    352.4439u    699.9352m
    1.28000n      3.1761u    700.0025m    348.6780u    699.9629m
    1.29000n      5.9023u    700.0049m    344.9121u    699.9907m
    1.30000n      8.6286u    700.0074m    341.1462u    700.0184m
    1.31000n     11.3548u    700.0098m    337.3803u    700.0462m
    1.32000n     11.4556u    700.0099m    333.9034u    700.0540m
    1.33000n      9.7023u    700.0083m    330.6305u    700.0478m
    1.34000n      7.9490u    700.0067m    327.3576u    700.0416m
    1.35000n      6.1957u    700.0052m    324.0847u    700.0354m
    1.36000n      4.4425u    700.0036m    320.8118u    700.0291m
    1.37000n      2.6892u    700.0020m    317.5389u    700.0229m
    1.38000n    935.9151n    700.0005m    314.2660u    700.0167m
    1.39000n   -817.3589n    699.9989m    310.9931u    700.0105m
    1.40000n     -2.5706u    699.9973m    307.7202u    700.0043m
    1.41000n     -4.3239u    699.9957m    304.4473u    699.9981m
    1.42000n     -6.0772u    699.9942m    301.1744u    699.9918m
    1.43000n     -7.8305u    699.9926m    297.9015u    699.9856m
    1.44000n     -9.5837u    699.9910m    294.6286u    699.9794m
    1.45000n    -11.3370u    699.9895m    291.3557u    699.9732m
    1.46000n    -11.5410u    699.9893m    288.6794u    699.9716m
    1.47000n    -10.4502u    699.9903m    286.5017u    699.9738m
    1.48000n     -9.3594u    699.9912m    284.3240u    699.9760m
    1.49000n     -8.2685u    699.9922m    282.1463u    699.9782m
    1.50000n     -7.1777u    699.9932m    279.9686u    699.9805m
    1.51000n     -6.0869u    699.9942m    277.7909u    699.9827m
    1.52000n     -4.9961u    699.9951m    275.6132u    699.9849m
    1.53000n     -3.9053u    699.9961m    273.4355u    699.9871m
    1.54000n     -2.8145u    699.9971m    271.2578u    699.9893m
    1.55000n     -1.7237u    699.9981m    269.0800u    699.9916m
    1.56000n   -632.9227n    699.9991m    266.9023u    699.9938m
    1.57000n      0.         700.0000m    264.7246u    699.9960m
    1.58000n      1.5487u    700.0010m    262.5469u    699.9982m
    1.59000n      2.6395u    700.0020m    260.3692u    700.0005m
    1.60000n      3.7303u    700.0030m    258.1915u    700.0027m
    1.61000n      4.8211u    700.0040m    256.0138u    700.0049m
    1.62000n      5.9119u    700.0049m    253.8361u    700.0071m
    1.63000n      7.0027u    700.0059m    251.6584u    700.0094m
    1.64000n      8.0935u    700.0069m    249.4807u    700.0116m
    1.65000n      9.1843u    700.0079m    247.3029u    700.0138m
    1.66000n     10.2751u    700.0088m    245.1252u    700.0160m
    1.67000n     11.3659u    700.0098m    242.9475u    700.0182m
    1.68000n     11.2718u    700.0097m    240.7483u    700.0191m
    1.69000n      4.5978u    700.0037m    238.4293u    700.0121m
    1.70000n     -2.0762u    699.9977m    236.1104u    700.0051m
    1.71000n     -8.7503u    699.9917m    233.7914u    699.9981m
    1.72000n      0.         699.9995m     -6.9042m    693.8321m
    1.73000n    628.3764n    700.0002m    229.0107m    651.0262m
    1.74000n      0.         699.9998m    486.8151m    635.7279m
    1.75000n      0.         699.9998m    491.0624m    632.8334m
    1.76000n      0.         699.9998m    499.7334m    633.0585m
    1.77000n      0.         699.9998m    509.4296m    634.0561m
    1.78000n      0.         699.9998m    517.2295m    636.0311m
    1.79000n      0.         699.9998m    525.0294m    638.0061m
    1.80000n      0.         699.9998m    532.6277m    639.9403m
    1.81000n      0.         699.9998m    534.3503m    640.6824m
    1.82000n      0.         699.9998m    536.0728m    641.4246m
    1.83000n      0.         699.9998m    537.7954m    642.1668m
    1.84000n      0.         699.9998m    538.8032m    642.6103m
    1.85000n      0.         699.9998m    538.8965m    642.6716m
    1.86000n      0.         699.9998m    538.9899m    642.7329m
    1.87000n      0.         699.9998m    539.0832m    642.7942m
    1.88000n      0.         699.9998m    539.1008m    642.7979m
    1.89000n      0.         699.9998m    539.1096m    642.7948m
    1.90000n      0.         699.9998m    539.1183m    642.7917m
    1.91000n      0.         699.9998m    539.1271m    642.7886m
    1.92000n      0.         699.9998m    539.1272m    642.7901m
    1.93000n      0.         699.9998m    539.1251m    642.7928m
    1.94000n      0.         699.9998m    539.1229m    642.7956m
    1.95000n      0.         699.9998m    539.1208m    642.7983m
    1.96000n      0.         699.9998m    539.1187m    642.8011m
    1.97000n      0.         699.9998m    539.1165m    642.8038m
    1.98000n      0.         699.9998m    539.1144m    642.8065m
    1.99000n      0.         699.9998m    539.1185m    642.7986m
    2.00000n      0.         699.9998m    539.1245m    642.7875m
    2.01000n      0.         699.9998m    577.2896m    650.6815m
    2.02000n      0.         699.9998m    659.5431m    672.9352m
    2.03000n      0.         699.9998m    677.5095m    683.7540m
    2.04000n      0.         699.9998m    687.0112m    689.9063m
    2.05000n      0.         699.9998m    692.7443m    693.9895m
    2.06000n      0.         699.9998m    696.6793m    696.9048m
    2.07000n      0.         699.9998m    698.0519m    698.1556m
    2.08000n      0.         699.9998m    699.2975m    699.2931m
    2.09000n      0.         699.9998m    699.5210m    699.5187m
    2.10000n      0.         699.9998m    699.7445m    699.7442m
    2.11000n      0.         699.9998m    699.9478m    699.9493m
    2.12000n      0.         699.9998m    699.9660m    699.9664m
    2.13000n      0.         699.9998m    699.9842m    699.9836m
    2.14000n      0.         699.9998m    700.0024m    700.0008m
    2.15000n      0.         699.9998m    700.0185m    700.0160m
    2.16000n      0.         699.9998m    700.0145m    700.0126m
    2.17000n      0.         699.9998m    700.0105m    700.0092m
    2.18000n      0.         699.9998m    700.0064m    700.0058m
    2.19000n      0.         699.9998m    700.0024m    700.0023m
    2.20000n      0.         699.9998m    699.9984m    699.9989m
    2.21000n      0.         699.9998m    699.9944m    699.9955m
    2.22000n      0.         699.9998m    699.9904m    699.9921m
    2.23000n      0.         699.9998m    699.9905m    699.9922m
    2.24000n      0.         699.9998m    699.9936m    699.9947m
    2.25000n      0.         699.9998m    699.9966m    699.9972m
    2.26000n      0.         699.9998m    699.9996m    699.9997m
    2.27000n      0.         699.9998m    700.0026m    700.0023m
    2.28000n      0.         699.9998m    700.0056m    700.0048m
    2.29000n      0.         699.9998m    712.4384m    712.4382m
    2.30000n      0.         699.9998m    720.1710m    720.1712m
    2.31000n      0.         699.9998m    718.0744m    718.0751m
    2.32000n      0.         699.9998m    718.1116m    718.1129m
    2.33000n      0.         699.9998m    718.1356m    718.1375m
    2.34000n      0.         699.9998m    718.1560m    718.1584m
    2.35000n      0.         699.9998m    718.1430m    718.1460m
    2.36000n      0.         699.9998m    718.1301m    718.1337m
    2.37000n      0.         699.9998m    718.1171m    718.1213m
    2.38000n      0.         699.9998m    718.1068m    718.1115m
    2.39000n      0.         699.9998m    718.1100m    718.1153m
    2.40000n      0.         699.9998m    718.1132m    718.1191m
    2.41000n      0.         699.9998m    718.1164m    718.1229m
    2.42000n      0.         699.9998m    718.1196m    718.1267m
    2.43000n      0.         699.9998m    718.1229m    718.1305m
    2.44000n      0.         699.9998m    718.1261m    718.1343m
    2.45000n      0.         699.9998m    718.1293m    718.1381m
    2.46000n      0.         699.9998m    718.1325m    718.1419m
    2.47000n      0.         699.9998m    718.1358m    718.1457m
    2.48000n      0.         699.9998m    718.1390m    718.1495m
    2.49000n      0.         699.9998m    718.1422m    718.1533m
    2.50000n      0.         699.9998m    718.1424m    718.1541m
    2.51000n      0.         699.9998m    718.1398m    718.1521m
    2.52000n      0.         699.9998m    718.1371m    718.1500m
    2.53000n      0.         699.9998m    718.1345m    718.1479m
    2.54000n      0.         699.9998m    718.1319m    718.1459m
    2.55000n      0.         699.9998m    718.1292m    718.1438m
    2.56000n      0.         699.9998m    718.1266m    718.1418m
    2.57000n      0.         699.9998m    718.1239m    718.1397m
    2.58000n      0.         699.9998m    718.1213m    718.1376m
    2.59000n      0.         699.9998m    718.1187m    718.1356m
    2.60000n      0.         699.9998m    718.1160m    718.1335m
    2.61000n      0.         699.9998m    718.1134m    718.1314m
    2.62000n      0.         699.9998m    718.1107m    718.1294m
    2.63000n      0.         699.9998m    718.1081m    718.1273m
    2.64000n      0.         699.9998m    718.1055m    718.1253m
    2.65000n      0.         699.9998m    718.1028m    718.1232m
    2.66000n      0.         699.9998m    718.1002m    718.1211m
    2.67000n      0.         699.9998m    718.0975m    718.1191m
    2.68000n      0.         699.9998m    718.0949m    718.1170m
    2.69000n      0.         699.9998m    718.0923m    718.1150m
    2.70000n      0.         699.9998m    718.0896m    718.1129m
    2.71000n      0.         699.9998m    718.0870m    718.1108m
    2.72000n      0.         699.9998m    718.0843m    718.1088m
    2.73000n      0.         699.9998m    718.0817m    718.1067m
    2.74000n      0.         699.9998m    718.0791m    718.1047m
    2.75000n      0.         699.9998m    718.0764m    718.1026m
    2.76000n      0.         699.9998m    718.0754m    718.1022m
    2.77000n      0.         699.9998m    718.0792m    718.1065m
    2.78000n      0.         699.9998m    718.0829m    718.1109m
    2.79000n      0.         699.9998m    718.0867m    718.1152m
    2.80000n      0.         699.9998m    718.0905m    718.1195m
    2.81000n      0.         699.9998m    718.0942m    718.1238m
    2.82000n      0.         699.9998m    718.0980m    718.1282m
    2.83000n      0.         699.9998m    718.1017m    718.1325m
    2.84000n      0.         699.9998m    718.1055m    718.1368m
    2.85000n      0.         699.9998m    718.1092m    718.1412m
    2.86000n      2.1960m    702.7132m    734.5120m    734.5568m
    2.87000n     36.9782m    710.0735m    626.2376m    779.2292m
    2.88000n      5.2479m    695.8455m      6.9952m    855.4056m
    2.89000n     28.0697u    700.0191m     75.3107u    852.7412m
    2.90000n     46.7551u    699.9972m     87.4705u    850.2504m
    2.91000n     38.4079u    700.0008m     82.0925u    847.9461m
    2.92000n     36.3927u    700.0004m     76.1445u    845.9980m
    2.93000n     35.2268u    699.9996m     70.1201u    844.0975m
    2.94000n     34.0610u    699.9987m     64.0956u    842.1971m
    2.95000n     32.8621u    699.9979m     58.4276u    840.3504m
    2.96000n     31.3127u    699.9982m     56.5415u    839.0731m
    2.97000n     29.7633u    699.9984m     54.6555u    837.7958m
    2.98000n     28.2140u    699.9987m     52.7694u    836.5185m
    2.99000n     26.6646u    699.9990m     50.8833u    835.2413m
    3.00000n     25.1152u    699.9992m     48.9972u    833.9640m
    3.01000n     23.5658u    699.9995m     47.1112u    832.6867m
    3.02000n     22.0165u    699.9998m     45.2251u    831.4095m
    3.03000n     20.4671u    700.0000m     43.3390u    830.1322m
    3.04000n     18.9177u    700.0003m     41.4529u    828.8549m
    3.05000n     17.3683u    700.0005m     39.5669u    827.5777m
    3.06000n     15.8190u    700.0008m     37.6808u    826.3004m
    3.07000n     15.3641u    700.0007m     36.0840u    825.3224m
    3.08000n     15.4932u    700.0004m     34.6416u    824.5041m
    3.09000n     15.6223u    700.0000m     33.1991u    823.6859m
    3.10000n     15.7514u    699.9997m     31.7567u    822.8676m
    3.11000n     15.8805u    699.9994m     30.3142u    822.0493m
    3.12000n     16.0095u    699.9990m     28.8718u    821.2310m
    3.13000n     16.1386u    699.9987m     27.4293u    820.4127m
    3.14000n     16.2677u    699.9984m     25.9869u    819.5945m
    3.15000n    -12.7813m    697.1956m    -22.5382m    732.3651m
    3.16000n     -2.2381m    696.7962m    610.7545m    710.8000m
    3.17000n     25.7646u    700.0210m    662.0135m    716.2718m
    3.18000n      3.9462u    700.0033m    661.9956m    716.2449m
    3.19000n     -4.7514u    699.9952m    661.9908m    716.2376m
    3.20000n     -1.7544u    699.9980m    661.9920m    716.2393m
    3.21000n     11.4741u    700.0101m    661.9993m    716.2502m
    3.22000n     -1.2062u    699.9985m    661.9922m    716.2395m
    3.23000n    -11.8633u    699.9887m    661.9862m    716.2304m
    3.24000n     -3.4544u    699.9964m    661.9904m    716.2367m
    3.25000n      4.9544u    700.0041m    661.9946m    716.2429m
    3.26000n     11.9653u    700.0105m    661.9981m    716.2481m
    3.27000n      6.2151u    700.0053m    661.9949m    716.2433m
    3.28000n      0.         700.0000m    661.9917m    716.2384m
    3.29000n     -5.2852u    699.9947m    661.9885m    716.2336m
    3.30000n    -11.0353u    699.9895m    661.9853m    716.2287m
    3.31000n     -7.9935u    699.9923m    661.9866m    716.2307m
    3.32000n     -3.7279u    699.9962m    661.9886m    716.2335m
    3.33000n    537.7059n    700.0001m    661.9905m    716.2364m
    3.34000n      4.8033u    700.0040m    661.9925m    716.2393m
    3.35000n      9.0689u    700.0079m    661.9944m    716.2422m
    3.36000n     10.8908u    700.0096m    661.9951m    716.2432m
    3.37000n      8.0187u    700.0069m    661.9934m    716.2406m
    3.38000n      5.1466u    700.0043m    661.9918m    716.2381m
    3.39000n      2.2744u    700.0017m    661.9901m    716.2355m
    3.40000n   -597.6899n    699.9990m    661.9884m    716.2330m
    3.41000n     -3.4698u    699.9964m    661.9868m    716.2304m
    3.42000n     -6.3420u    699.9938m    661.9851m    716.2278m
    3.43000n     -9.2141u    699.9911m    661.9834m    716.2253m
    3.44000n    -10.7680u    699.9897m    661.9824m    716.2237m
    3.45000n     -9.0096u    699.9913m    661.9831m    716.2247m
    3.46000n     -7.2512u    699.9929m    661.9837m    716.2256m
    3.47000n     -5.4929u    699.9945m    661.9844m    716.2265m
    3.48000n     -3.7345u    699.9962m    661.9850m    716.2275m
    3.49000n     -1.9761u    699.9978m    661.9857m    716.2284m
    3.50000n      0.         699.9994m    661.9863m    716.2293m
    3.51000n      1.5406u    700.0010m    661.9870m    716.2303m
    3.52000n      3.2990u    700.0026m    661.9877m    716.2312m
    3.53000n      5.0574u    700.0042m    661.9883m    716.2321m
    3.54000n      6.8157u    700.0058m    661.9890m    716.2331m
    3.55000n      8.5741u    700.0074m    661.9896m    716.2340m
    3.56000n     10.3325u    700.0091m    661.9903m    716.2349m
    3.57000n     11.1145u    700.0098m    661.9904m    716.2351m
    3.58000n      9.5782u    700.0084m    661.9895m    716.2336m
    3.59000n      8.0419u    700.0070m    661.9885m    716.2321m
    3.60000n      6.5056u    700.0055m    661.9875m    716.2305m
    3.61000n      4.9693u    700.0041m    661.9865m    716.2290m
    3.62000n      3.4330u    700.0027m    661.9855m    716.2275m
    3.63000n      1.8967u    700.0013m    661.9845m    716.2259m
    3.64000n      0.         699.9999m    661.9835m    716.2244m
    3.65000n     -1.1759u    699.9985m    661.9825m    716.2229m
    3.66000n     -2.7122u    699.9971m    661.9815m    716.2213m
    3.67000n     -4.2485u    699.9957m    661.9806m    716.2198m
    3.68000n     -5.7848u    699.9943m    661.9796m    716.2183m
    3.69000n     -7.3211u    699.9929m    661.9786m    716.2168m
    3.70000n     -8.8573u    699.9915m    661.9776m    716.2152m
    3.71000n    -10.3936u    699.9901m    661.9766m    716.2137m
    3.72000n      1.0359u    700.0005m    652.1584m    706.0648m
    3.73000n      0.         699.9991m    669.6725m    684.1047m
    3.74000n      0.         699.9998m    689.8384m    694.0860m
    3.75000n      0.         699.9998m    694.6420m    696.3668m
    3.76000n      0.         699.9998m    696.9201m    697.7417m
    3.77000n      0.         699.9998m    698.5386m    698.7606m
    3.78000n      0.         699.9998m    699.0463m    699.1693m
    3.79000n      0.         699.9998m    699.5540m    699.5780m
    3.80000n      0.         699.9998m    699.8790m    699.8466m
    3.81000n      0.         699.9998m    699.9354m    699.9095m
    3.82000n      0.         699.9998m    699.9918m    699.9724m
    3.83000n      0.         699.9998m    700.0483m    700.0354m
    3.84000n      0.         699.9998m    700.0669m    700.0588m
    3.85000n      0.         699.9998m    700.0440m    700.0391m
    3.86000n      0.         699.9998m    700.0211m    700.0193m
    3.87000n      0.         699.9998m    699.9982m    699.9996m
    3.88000n      0.         699.9998m    699.9753m    699.9798m
    3.89000n      0.         699.9998m    699.9524m    699.9601m
    3.90000n      0.         699.9998m    699.9467m    699.9550m
    3.91000n      0.         699.9998m    699.9576m    699.9642m
    3.92000n      0.         699.9998m    699.9686m    699.9733m
    3.93000n      0.         699.9998m    699.9795m    699.9825m
    3.94000n      0.         699.9998m    699.9904m    699.9916m
    3.95000n      0.         699.9998m    700.0013m    700.0008m
    3.96000n      0.         699.9998m    700.0123m    700.0099m
    3.97000n      0.         699.9998m    700.0232m    700.0191m
    3.98000n      0.         699.9998m    700.0341m    700.0282m
    3.99000n      0.         699.9998m    700.0450m    700.0374m
    4.00000n      0.         699.9998m    700.0559m    700.0465m
    4.01000n      0.         699.9998m    696.2432m    700.1147m
    4.02000n      0.         699.9998m    663.9373m    597.3312m
    4.03000n      0.         699.9998m    654.7346m    567.0287m
    4.04000n      0.         699.9998m    650.0761m    555.2952m
    4.05000n      0.         699.9998m    647.3391m    548.8928m
    4.06000n      0.         699.9998m    645.2822m    544.3525m
    4.07000n      0.         699.9998m    644.3637m    542.3701m
    4.08000n      0.         699.9998m    643.6963m    540.9517m
    4.09000n      0.         699.9998m    643.2480m    540.0134m
    4.10000n      0.         699.9998m    643.1019m    539.7371m
    4.11000n      0.         699.9998m    642.9558m    539.4607m
    4.12000n      0.         699.9998m    642.8457m    539.2489m
    4.13000n      0.         699.9998m    642.8356m    539.2165m
    4.14000n      0.         699.9998m    642.8255m    539.1841m
    4.15000n      0.         699.9998m    642.8153m    539.1517m
    4.16000n      0.         699.9998m    642.8052m    539.1192m
    4.17000n      0.         699.9998m    642.8014m    539.1118m
    4.18000n      0.         699.9998m    642.8006m    539.1165m
    4.19000n      0.         699.9998m    642.7999m    539.1213m
    4.20000n      0.         699.9998m    642.7991m    539.1260m
    4.21000n      0.         699.9998m    642.7984m    539.1307m
    4.22000n      0.         699.9998m    642.7976m    539.1354m
    4.23000n      0.         699.9998m    642.7969m    539.1402m
    4.24000n      0.         699.9998m    642.7963m    539.1433m
    4.25000n      0.         699.9998m    642.7970m    539.1330m
    4.26000n      0.         699.9998m    642.7977m    539.1228m
    4.27000n      0.         699.9998m    642.7984m    539.1125m
    4.28000n      0.         699.9998m    642.7992m    539.1023m
    4.29000n      0.         699.9998m    657.0190m    486.8859m
    4.30000n      0.         699.9998m    680.0589m    147.5485m
    4.31000n      0.         699.9998m    684.6827m     59.2058m
    4.32000n      0.         699.9997m    689.3478m     35.5110m
    4.33000n      0.         699.9997m    692.6174m     24.1675m
    4.34000n      0.         699.9997m    695.0375m     17.0424m
    4.35000n      0.         699.9997m    696.3254m     13.9487m
    4.36000n      0.         699.9997m    697.6133m     10.8549m
    4.37000n      0.         699.9997m    698.5161m      8.5954m
    4.38000n      0.         699.9997m    698.8830m      7.4961m
    4.39000n      0.         699.9997m    699.2500m      6.3969m
    4.40000n      0.         699.9997m    699.6170m      5.2976m
    4.41000n      0.         699.9997m    699.6971m      4.8635m
    4.42000n      0.         699.9997m    699.7761m      4.4320m
    4.43000n      0.         699.9997m    699.8550m      4.0005m
    4.44000n      0.         699.9997m    699.9340m      3.5691m
    4.45000n      0.         699.9996m    700.0129m      3.1376m
    4.46000n      0.         699.9996m    700.0151m      2.9460m
    4.47000n      0.         699.9996m    700.0085m      2.7817m
    4.48000n      0.         699.9996m    700.0019m      2.6174m
    4.49000n      0.         699.9996m    699.9954m      2.4532m
    4.50000n      0.         699.9996m    699.9888m      2.2889m
    4.51000n      0.         699.9996m    699.9822m      2.1246m
    4.52000n      0.         699.9996m    699.9756m      1.9603m
    4.53000n      0.         699.9996m    699.9765m      1.8578m
    4.54000n      0.         699.9996m    699.9813m      1.7892m
    4.55000n      0.         699.9996m    699.9862m      1.7206m
    4.56000n      0.         699.9996m    699.9910m      1.6520m
    4.57000n      0.         699.9996m    699.9959m      1.5833m
    4.58000n      0.         699.9996m    700.0008m      1.5147m
    4.59000n      0.         699.9996m    700.0056m      1.4461m
    4.60000n      0.         699.9996m    700.0105m      1.3775m
    4.61000n      0.         699.9996m    700.0153m      1.3088m
    4.62000n      0.         699.9996m    700.0202m      1.2402m
    4.63000n      0.         699.9996m    700.0251m      1.1716m
    4.64000n      0.         699.9996m    700.0219m      1.1431m
    4.65000n      0.         699.9996m    700.0184m      1.1162m
    4.66000n      0.         699.9996m    700.0149m      1.0893m
    4.67000n      0.         699.9996m    700.0114m      1.0624m
    4.68000n      0.         699.9996m    700.0079m      1.0355m
    4.69000n      0.         699.9996m    700.0043m      1.0086m
    4.70000n      0.         699.9996m    700.0008m    981.6411u
    4.71000n      0.         699.9996m    699.9973m    954.7235u
    4.72000n      0.         699.9996m    699.9938m    927.8059u
    4.73000n      0.         699.9996m    699.9903m    900.8883u
    4.74000n      0.         699.9996m    699.9868m    873.9707u
    4.75000n      0.         699.9996m    699.9833m    847.0530u
    4.76000n      0.         699.9996m    699.9798m    820.1354u
    4.77000n      0.         699.9996m    699.9763m    793.2178u
    4.78000n      0.         699.9996m    699.9737m    767.1100u
    4.79000n      0.         699.9996m    699.9803m    750.0833u
    4.80000n      0.         699.9996m    699.9869m    733.0566u
    4.81000n      0.         699.9996m    699.9936m    716.0299u
    4.82000n      0.         699.9996m    700.0002m    699.0032u
    4.83000n      0.         699.9996m    700.0068m    681.9765u
    4.84000n      0.         699.9996m    700.0135m    664.9498u
    4.85000n      0.         699.9996m    700.0201m    647.9231u
    4.86000n      2.1986m    702.7145m    702.0328m      3.9376m
    4.87000n     39.0427m    669.4903m    661.9589m     59.1871m
    4.88000n    201.2711m    463.6679m    551.6144m    197.5588m
    4.89000n    647.8709m     30.5988m    647.1895m     28.0053m
    4.90000n    699.8037m    -96.1949u    662.2171m    377.3831u
    4.91000n    699.9589m     95.4411u    673.3805m    310.4725u
    4.92000n    699.9893m    131.9651u    681.1845m    291.2895u
    4.93000n    700.1300m    303.0737u    687.1282m    224.7963u
    4.94000n    700.0147m    157.6236u    690.5948m    271.1720u
    4.95000n    699.8994m     12.1734u    694.0614m    317.5478u
    4.96000n    699.8819m    -11.8332u    696.1295m    320.8211u
    4.97000n    699.9482m     68.4945u    696.9961m    287.0643u
    4.98000n    700.0145m    148.8223u    697.8626m    253.3074u
    4.99000n    700.0808m    229.1500u    698.7292m    219.5506u
    5.00000n    700.1471m    309.4778u    699.5958m    185.7937u
    5.01000n    700.1014m    250.6213u    699.7254m    202.5644u
    5.02000n    700.0501m    185.0026u    699.8193m    221.7900u
    5.03000n    699.9989m    119.3838u    699.9132m    241.0156u
    5.04000n    699.9477m     53.7651u    700.0070m    260.2412u
    5.05000n    699.8964m    -11.8537u    700.1009m    279.4668u
    5.06000n    699.8555m    -64.6028u    700.1795m    294.1663u
    5.07000n    699.8906m    -22.3326u    700.1452m    275.4494u
    5.08000n    699.9258m     19.9376u    700.1109m    256.7325u
    5.09000n    699.9609m     62.2077u    700.0766m    238.0156u
    5.10000n    699.9960m    104.4779u    700.0423m    219.2987u
    5.11000n    700.0312m    146.7481u    700.0080m    200.5818u
    5.12000n    700.0663m    189.0182u    699.9737m    181.8649u
    5.13000n    700.1014m    231.2884u    699.9394m    163.1481u
    5.14000n    700.1366m    273.5586u    699.9051m    144.4312u
    5.15000n    696.7056m     -6.9709m    697.0767m     -9.2111m
    5.16000n    697.1767m     -2.4408m    696.0029m     -4.4273m
    5.17000n    700.0119m     13.8590u    698.1916m    410.0976u
    5.18000n    699.9970m     -3.1858u    698.7281m    388.3550u
    5.19000n    700.0089m     10.5659u    699.1477m    393.1956u
    5.20000n    700.0030m      3.8849u    699.3513m    384.2270u
    5.21000n    699.9971m     -2.7961u    699.5549m    375.2584u
    5.22000n    699.9913m     -9.4771u    699.7585m    366.2898u
    5.23000n    699.9915m     -9.1896u    699.8240m    362.3771u
    5.24000n    699.9935m     -6.9328u    699.8504m    359.8932u
    5.25000n    699.9955m     -4.6760u    699.8768m    357.4093u
    5.26000n    699.9975m     -2.4192u    699.9033m    354.9255u
    5.27000n    699.9995m      0.         699.9297m    352.4416u
    5.28000n    700.0015m      2.0944u    699.9561m    349.9577u
    5.29000n    700.0035m      4.3512u    699.9826m    347.4738u
    5.30000n    700.0055m      6.6081u    700.0090m    344.9899u
    5.31000n    700.0075m      8.8649u    700.0354m    342.5060u
    5.32000n    700.0093m     10.9616u    700.0605m    339.9538u
    5.33000n    700.0079m      9.3978u    700.0541m    335.8397u
    5.34000n    700.0065m      7.8341u    700.0476m    331.7256u
    5.35000n    700.0052m      6.2703u    700.0412m    327.6114u
    5.36000n    700.0038m      4.7065u    700.0347m    323.4973u
    5.37000n    700.0024m      3.1427u    700.0283m    319.3831u
    5.38000n    700.0010m      1.5789u    700.0219m    315.2690u
    5.39000n    699.9996m      0.         700.0154m    311.1549u
    5.40000n    699.9982m     -1.5486u    700.0090m    307.0407u
    5.41000n    699.9969m     -3.1124u    700.0025m    302.9266u
    5.42000n    699.9955m     -4.6762u    699.9961m    298.8124u
    5.43000n    699.9941m     -6.2400u    699.9897m    294.6983u
    5.44000n    699.9927m     -7.8038u    699.9832m    290.5842u
    5.45000n    699.9913m     -9.3676u    699.9768m    286.4700u
    5.46000n    699.9903m    -10.5360u    699.9717m    282.7469u
    5.47000n    699.9911m     -9.5898u    699.9737m    281.1158u
    5.48000n    699.9920m     -8.6435u    699.9758m    279.4846u
    5.49000n    699.9928m     -7.6972u    699.9779m    277.8534u
    5.50000n    699.9936m     -6.7510u    699.9799m    276.2222u
    5.51000n    699.9945m     -5.8047u    699.9820m    274.5910u
    5.52000n    699.9953m     -4.8585u    699.9840m    272.9598u
    5.53000n    699.9962m     -3.9122u    699.9861m    271.3286u
    5.54000n    699.9970m     -2.9659u    699.9882m    269.6974u
    5.55000n    699.9978m     -2.0197u    699.9902m    268.0662u
    5.56000n    699.9987m     -1.0734u    699.9923m    266.4350u
    5.57000n    699.9995m      0.         699.9943m    264.8038u
    5.58000n    700.0004m    819.0980n    699.9964m    263.1726u
    5.59000n    700.0012m      1.7654u    699.9985m    261.5414u
    5.60000n    700.0020m      2.7116u    700.0005m    259.9102u
    5.61000n    700.0029m      3.6579u    700.0026m    258.2790u
    5.62000n    700.0037m      4.6041u    700.0046m    256.6478u
    5.63000n    700.0045m      5.5504u    700.0067m    255.0166u
    5.64000n    700.0054m      6.4967u    700.0088m    253.3854u
    5.65000n    700.0062m      7.4429u    700.0108m    251.7542u
    5.66000n    700.0071m      8.3892u    700.0129m    250.1230u
    5.67000n    700.0079m      9.3354u    700.0149m    248.4918u
    5.68000n    700.0087m     10.2817u    700.0170m    246.8607u
    5.69000n    700.0066m      7.9175u    700.0158m    243.3060u
    5.70000n    700.0000m      0.         700.0096m    236.8118u
    5.71000n    699.9934m     -6.9289u    700.0035m    230.3177u
    5.72000n    699.9993m      0.         694.2046m     -7.9624m
    5.73000n    699.9999m      0.         651.1086m    240.2440m
    5.74000n    699.9998m      0.         635.7531m    486.8626m
    5.75000n    699.9998m      0.         632.8665m    491.1252m
    5.76000n    699.9998m      0.         633.0627m    499.7217m
    5.77000n    699.9998m      0.         634.1692m    509.6856m
    5.78000n    699.9998m      0.         636.0166m    517.3650m
    5.79000n    699.9998m      0.         637.9539m    524.7672m
    5.80000n    699.9998m      0.         639.8912m    532.1694m
    5.81000n    699.9998m      0.         640.7746m    534.6827m
    5.82000n    699.9998m      0.         641.4316m    536.1464m
    5.83000n    699.9998m      0.         642.0887m    537.6101m
    5.84000n    699.9998m      0.         642.6461m    538.8479m
    5.85000n    699.9998m      0.         642.6947m    538.9328m
    5.86000n    699.9998m      0.         642.7433m    539.0177m
    5.87000n    699.9998m      0.         642.7919m    539.1026m
    5.88000n    699.9998m      0.         642.8061m    539.1293m
    5.89000n    699.9998m      0.         642.7990m    539.1196m
    5.90000n    699.9998m      0.         642.7918m    539.1100m
    5.91000n    699.9998m      0.         642.7847m    539.1003m
    5.92000n    699.9998m      0.         642.7824m    539.0976m
    5.93000n    699.9998m      0.         642.7870m    539.1046m
    5.94000n    699.9998m      0.         642.7915m    539.1116m
    5.95000n    699.9998m      0.         642.7961m    539.1186m
    5.96000n    699.9998m      0.         642.8006m    539.1257m
    5.97000n    699.9998m      0.         642.8052m    539.1327m
    5.98000n    699.9998m      0.         642.8097m    539.1397m
    5.99000n    699.9998m      0.         642.8142m    539.1467m
    6.00000n    699.9998m      0.         642.7822m    539.0953m
    6.01000n    699.9998m      0.         652.0804m    581.1141m
    6.02000n    699.9998m      0.         673.1309m    659.2407m
    6.03000n    699.9998m      0.         684.0053m    677.9423m
    6.04000n    699.9998m      0.         690.1696m    687.3877m
    6.05000n    699.9998m      0.         694.0454m    692.8806m
    6.06000n    699.9998m      0.         696.7759m    696.4055m
    6.07000n    699.9998m      0.         698.2875m    698.2454m
    6.08000n    699.9998m      0.         699.0060m    698.9892m
    6.09000n    699.9998m      0.         699.7051m    699.7128m
    6.10000n    699.9998m      0.         699.7973m    699.8066m
    6.11000n    699.9998m      0.         699.8896m    699.9004m
    6.12000n    699.9998m      0.         699.9819m    699.9942m
    6.13000n    699.9998m      0.         700.0072m    700.0177m
    6.14000n    699.9998m      0.         700.0083m    700.0158m
    6.15000n    699.9998m      0.         700.0094m    700.0138m
    6.16000n    699.9998m      0.         700.0105m    700.0119m
    6.17000n    699.9998m      0.         700.0116m    700.0100m
    6.18000n    699.9998m      0.         700.0099m    700.0079m
    6.19000n    699.9998m      0.         700.0076m    700.0057m
    6.20000n    699.9998m      0.         700.0053m    700.0036m
    6.21000n    699.9998m      0.         700.0029m    700.0014m
    6.22000n    699.9998m      0.         700.0006m    699.9993m
    6.23000n    699.9998m      0.         699.9983m    699.9971m
    6.24000n    699.9998m      0.         699.9959m    699.9950m
    6.25000n    699.9998m      0.         699.9936m    699.9929m
    6.26000n    699.9998m      0.         699.9913m    699.9907m
    6.27000n    699.9998m      0.         699.9889m    699.9886m
    6.28000n    699.9998m      0.         700.0001m    700.0028m
    6.29000n    699.9998m      0.         712.2423m    712.2432m
    6.30000n    699.9998m      0.         721.2320m    721.2331m
    6.31000n    699.9998m      0.         718.4663m    718.4665m
    6.32000n    699.9998m      0.         718.5092m    718.5089m
    6.33000n    699.9998m      0.         718.5785m    718.5776m
    6.34000n    699.9998m      0.         718.6110m    718.6094m
    6.35000n    699.9998m      0.         718.5823m    718.5802m
    6.36000n    699.9998m      0.         718.5536m    718.5510m
    6.37000n    699.9998m      0.         718.5250m    718.5217m
    6.38000n    699.9998m      0.         718.5208m    718.5169m
    6.39000n    699.9998m      0.         718.5331m    718.5287m
    6.40000n    699.9998m      0.         718.5454m    718.5404m
    6.41000n    699.9998m      0.         718.5577m    718.5521m
    6.42000n    699.9998m      0.         718.5700m    718.5638m
    6.43000n    699.9998m      0.         718.5823m    718.5755m
    6.44000n    699.9998m      0.         718.5946m    718.5873m
    6.45000n    699.9998m      0.         718.6069m    718.5990m
    6.46000n    699.9998m      0.         718.6131m    718.6046m
    6.47000n    699.9998m      0.         718.6075m    718.5984m
    6.48000n    699.9998m      0.         718.6019m    718.5923m
    6.49000n    699.9998m      0.         718.5963m    718.5861m
    6.50000n    699.9998m      0.         718.5907m    718.5799m
    6.51000n    699.9998m      0.         718.5851m    718.5737m
    6.52000n    699.9998m      0.         718.5796m    718.5676m
    6.53000n    699.9998m      0.         718.5740m    718.5614m
    6.54000n    699.9998m      0.         718.5684m    718.5552m
    6.55000n    699.9998m      0.         718.5628m    718.5490m
    6.56000n    699.9998m      0.         718.5572m    718.5428m
    6.57000n    699.9998m      0.         718.5516m    718.5367m
    6.58000n    699.9998m      0.         718.5460m    718.5305m
    6.59000n    699.9998m      0.         718.5404m    718.5243m
    6.60000n    699.9998m      0.         718.5348m    718.5181m
    6.61000n    699.9998m      0.         718.5292m    718.5120m
    6.62000n    699.9998m      0.         718.5236m    718.5058m
    6.63000n    699.9998m      0.         718.5180m    718.4996m
    6.64000n    699.9998m      0.         718.5124m    718.4934m
[...]
  420.00000p    700.0000m
  430.00000p    700.0000m
  440.00000p    700.0000m
  450.00000p    700.0000m
  460.00000p    700.0000m
  470.00000p    700.0000m
  480.00000p    700.0000m
  490.00000p    700.0000m
  500.00000p    700.0000m
  510.00000p    700.0000m
  520.00000p    700.0000m
  530.00000p    700.0000m
  540.00000p    700.0000m
  550.00000p    700.0000m
  560.00000p    700.0000m
  570.00000p    700.0000m
  580.00000p    700.0000m
  590.00000p    700.0000m
  600.00000p    700.0000m
  610.00000p    700.0000m
  620.00000p    700.0000m
  630.00000p    700.0000m
  640.00000p    700.0000m
  650.00000p    700.0000m
  660.00000p    700.0000m
  670.00000p    700.0000m
  680.00000p    700.0000m
  690.00000p    700.0000m
  700.00000p    700.0000m
  710.00000p    700.0000m
  720.00000p    700.0000m
  730.00000p    700.0000m
  740.00000p    700.0000m
  750.00000p    700.0000m
  760.00000p    700.0000m
  770.00000p    700.0000m
  780.00000p    700.0000m
  790.00000p    700.0000m
  800.00000p    700.0000m
  810.00000p    700.0000m
  820.00000p    700.0000m
  830.00000p    700.0000m
  840.00000p    700.0000m
  850.00000p    700.0000m
  860.00000p    700.0000m
  870.00000p    700.0000m
  880.00000p    700.0000m
  890.00000p    700.0000m
  900.00000p    700.0000m
  910.00000p    700.0000m
  920.00000p    700.0000m
  930.00000p    700.0000m
  940.00000p    700.0000m
  950.00000p    700.0000m
  960.00000p    700.0000m
  970.00000p    700.0000m
  980.00000p    700.0000m
  990.00000p    700.0000m
    1.00000n    700.0000m
    1.01000n    700.0000m
    1.02000n    700.0000m
    1.03000n    700.0000m
    1.04000n    700.0000m
    1.05000n    700.0000m
    1.06000n    700.0000m
    1.07000n    700.0000m
    1.08000n    700.0000m
    1.09000n    700.0000m
    1.10000n    700.0000m
    1.11000n    700.0000m
    1.12000n    700.0000m
    1.13000n    700.0000m
    1.14000n    700.0000m
    1.15000n    700.0000m
    1.16000n    700.0000m
    1.17000n    700.0000m
    1.18000n    700.0000m
    1.19000n    700.0000m
    1.20000n    700.0000m
    1.21000n    700.0000m
    1.22000n    700.0000m
    1.23000n    700.0000m
    1.24000n    700.0000m
    1.25000n    700.0000m
    1.26000n    700.0000m
    1.27000n    700.0000m
    1.28000n    700.0000m
    1.29000n    700.0000m
    1.30000n    700.0000m
    1.31000n    700.0000m
    1.32000n    700.0000m
    1.33000n    700.0000m
    1.34000n    700.0000m
    1.35000n    700.0000m
    1.36000n    700.0000m
    1.37000n    700.0000m
    1.38000n    700.0000m
    1.39000n    700.0000m
    1.40000n    700.0000m
    1.41000n    700.0000m
    1.42000n    700.0000m
    1.43000n    700.0000m
    1.44000n    700.0000m
    1.45000n    700.0000m
    1.46000n    700.0000m
    1.47000n    700.0000m
    1.48000n    700.0000m
    1.49000n    700.0000m
    1.50000n    700.0000m
    1.51000n    700.0000m
    1.52000n    700.0000m
    1.53000n    700.0000m
    1.54000n    700.0000m
    1.55000n    700.0000m
    1.56000n    700.0000m
    1.57000n    700.0000m
    1.58000n    700.0000m
    1.59000n    700.0000m
    1.60000n    700.0000m
    1.61000n    700.0000m
    1.62000n    700.0000m
    1.63000n    700.0000m
    1.64000n    700.0000m
    1.65000n    700.0000m
    1.66000n    700.0000m
    1.67000n    700.0000m
    1.68000n    700.0000m
    1.69000n    700.0000m
    1.70000n    700.0000m
    1.71000n    700.0000m
    1.72000n    700.0000m
    1.73000n    700.0000m
    1.74000n    700.0000m
    1.75000n    700.0000m
    1.76000n    700.0000m
    1.77000n    700.0000m
    1.78000n    700.0000m
    1.79000n    700.0000m
    1.80000n    700.0000m
    1.81000n    700.0000m
    1.82000n    700.0000m
    1.83000n    700.0000m
    1.84000n    700.0000m
    1.85000n    700.0000m
    1.86000n    700.0000m
    1.87000n    700.0000m
    1.88000n    700.0000m
    1.89000n    700.0000m
    1.90000n    700.0000m
    1.91000n    700.0000m
    1.92000n    700.0000m
    1.93000n    700.0000m
    1.94000n    700.0000m
    1.95000n    700.0000m
    1.96000n    700.0000m
    1.97000n    700.0000m
    1.98000n    700.0000m
    1.99000n    700.0000m
    2.00000n    700.0000m
    2.01000n    350.0000m
    2.02000n      0.
    2.03000n      0.
    2.04000n      0.
    2.05000n      0.
    2.06000n      0.
    2.07000n      0.
    2.08000n      0.
    2.09000n      0.
    2.10000n      0.
    2.11000n      0.
    2.12000n      0.
    2.13000n      0.
    2.14000n      0.
    2.15000n      0.
    2.16000n      0.
    2.17000n      0.
    2.18000n      0.
    2.19000n      0.
    2.20000n      0.
    2.21000n      0.
    2.22000n      0.
    2.23000n      0.
    2.24000n      0.
    2.25000n      0.
    2.26000n      0.
    2.27000n      0.
    2.28000n      0.
    2.29000n      0.
    2.30000n      0.
    2.31000n      0.
    2.32000n      0.
    2.33000n      0.
    2.34000n      0.
    2.35000n      0.
    2.36000n      0.
    2.37000n      0.
    2.38000n      0.
    2.39000n      0.
    2.40000n      0.
    2.41000n      0.
    2.42000n      0.
    2.43000n      0.
    2.44000n      0.
    2.45000n      0.
    2.46000n      0.
    2.47000n      0.
    2.48000n      0.
    2.49000n      0.
    2.50000n      0.
    2.51000n      0.
    2.52000n      0.
    2.53000n      0.
    2.54000n      0.
    2.55000n      0.
    2.56000n      0.
    2.57000n      0.
    2.58000n      0.
    2.59000n      0.
    2.60000n      0.
    2.61000n      0.
    2.62000n      0.
    2.63000n      0.
    2.64000n      0.
    2.65000n      0.
    2.66000n      0.
    2.67000n      0.
    2.68000n      0.
    2.69000n      0.
    2.70000n      0.
    2.71000n      0.
    2.72000n      0.
    2.73000n      0.
    2.74000n      0.
    2.75000n      0.
    2.76000n      0.
    2.77000n      0.
    2.78000n      0.
    2.79000n      0.
    2.80000n      0.
    2.81000n      0.
    2.82000n      0.
    2.83000n      0.
    2.84000n      0.
    2.85000n      0.
    2.86000n      0.
    2.87000n      0.
    2.88000n      0.
    2.89000n      0.
    2.90000n      0.
    2.91000n      0.
    2.92000n      0.
    2.93000n      0.
    2.94000n      0.
    2.95000n      0.
    2.96000n      0.
    2.97000n      0.
    2.98000n      0.
    2.99000n      0.
    3.00000n      0.
    3.01000n      0.
    3.02000n      0.
    3.03000n      0.
    3.04000n      0.
    3.05000n      0.
    3.06000n      0.
    3.07000n      0.
    3.08000n      0.
    3.09000n      0.
    3.10000n      0.
    3.11000n      0.
    3.12000n      0.
    3.13000n      0.
    3.14000n      0.
    3.15000n      0.
    3.16000n      0.
    3.17000n      0.
    3.18000n      0.
    3.19000n      0.
    3.20000n      0.
    3.21000n      0.
    3.22000n      0.
    3.23000n      0.
    3.24000n      0.
    3.25000n      0.
    3.26000n      0.
    3.27000n      0.
    3.28000n      0.
    3.29000n      0.
    3.30000n      0.
    3.31000n      0.
    3.32000n      0.
    3.33000n      0.
    3.34000n      0.
    3.35000n      0.
    3.36000n      0.
    3.37000n      0.
    3.38000n      0.
    3.39000n      0.
    3.40000n      0.
    3.41000n      0.
    3.42000n      0.
    3.43000n      0.
    3.44000n      0.
    3.45000n      0.
    3.46000n      0.
    3.47000n      0.
    3.48000n      0.
    3.49000n      0.
    3.50000n      0.
    3.51000n      0.
    3.52000n      0.
    3.53000n      0.
    3.54000n      0.
    3.55000n      0.
    3.56000n      0.
    3.57000n      0.
    3.58000n      0.
    3.59000n      0.
    3.60000n      0.
    3.61000n      0.
    3.62000n      0.
    3.63000n      0.
    3.64000n      0.
    3.65000n      0.
    3.66000n      0.
    3.67000n      0.
    3.68000n      0.
    3.69000n      0.
    3.70000n      0.
    3.71000n      0.
    3.72000n      0.
    3.73000n      0.
    3.74000n      0.
    3.75000n      0.
    3.76000n      0.
    3.77000n      0.
    3.78000n      0.
    3.79000n      0.
    3.80000n      0.
    3.81000n      0.
    3.82000n      0.
    3.83000n      0.
    3.84000n      0.
    3.85000n      0.
    3.86000n      0.
    3.87000n      0.
    3.88000n      0.
    3.89000n      0.
    3.90000n      0.
    3.91000n      0.
    3.92000n      0.
    3.93000n      0.
    3.94000n      0.
    3.95000n      0.
    3.96000n      0.
    3.97000n      0.
    3.98000n      0.
    3.99000n      0.
    4.00000n      0.
    4.01000n    350.0000m
    4.02000n    700.0000m
    4.03000n    700.0000m
    4.04000n    700.0000m
    4.05000n    700.0000m
    4.06000n    700.0000m
    4.07000n    700.0000m
    4.08000n    700.0000m
    4.09000n    700.0000m
    4.10000n    700.0000m
    4.11000n    700.0000m
    4.12000n    700.0000m
    4.13000n    700.0000m
    4.14000n    700.0000m
    4.15000n    700.0000m
    4.16000n    700.0000m
    4.17000n    700.0000m
    4.18000n    700.0000m
    4.19000n    700.0000m
    4.20000n    700.0000m
    4.21000n    700.0000m
    4.22000n    700.0000m
    4.23000n    700.0000m
    4.24000n    700.0000m
    4.25000n    700.0000m
    4.26000n    700.0000m
    4.27000n    700.0000m
    4.28000n    700.0000m
    4.29000n    700.0000m
    4.30000n    700.0000m
    4.31000n    700.0000m
    4.32000n    700.0000m
    4.33000n    700.0000m
    4.34000n    700.0000m
    4.35000n    700.0000m
    4.36000n    700.0000m
    4.37000n    700.0000m
    4.38000n    700.0000m
    4.39000n    700.0000m
    4.40000n    700.0000m
    4.41000n    700.0000m
    4.42000n    700.0000m
    4.43000n    700.0000m
    4.44000n    700.0000m
    4.45000n    700.0000m
    4.46000n    700.0000m
    4.47000n    700.0000m
    4.48000n    700.0000m
    4.49000n    700.0000m
    4.50000n    700.0000m
    4.51000n    700.0000m
    4.52000n    700.0000m
    4.53000n    700.0000m
    4.54000n    700.0000m
    4.55000n    700.0000m
    4.56000n    700.0000m
    4.57000n    700.0000m
    4.58000n    700.0000m
    4.59000n    700.0000m
    4.60000n    700.0000m
    4.61000n    700.0000m
    4.62000n    700.0000m
    4.63000n    700.0000m
    4.64000n    700.0000m
    4.65000n    700.0000m
    4.66000n    700.0000m
    4.67000n    700.0000m
    4.68000n    700.0000m
    4.69000n    700.0000m
    4.70000n    700.0000m
    4.71000n    700.0000m
    4.72000n    700.0000m
    4.73000n    700.0000m
    4.74000n    700.0000m
    4.75000n    700.0000m
    4.76000n    700.0000m
    4.77000n    700.0000m
    4.78000n    700.0000m
    4.79000n    700.0000m
    4.80000n    700.0000m
    4.81000n    700.0000m
    4.82000n    700.0000m
    4.83000n    700.0000m
    4.84000n    700.0000m
    4.85000n    700.0000m
    4.86000n    700.0000m
    4.87000n    700.0000m
    4.88000n    700.0000m
    4.89000n    700.0000m
    4.90000n    700.0000m
    4.91000n    700.0000m
    4.92000n    700.0000m
    4.93000n    700.0000m
    4.94000n    700.0000m
    4.95000n    700.0000m
    4.96000n    700.0000m
    4.97000n    700.0000m
    4.98000n    700.0000m
    4.99000n    700.0000m
    5.00000n    700.0000m
    5.01000n    700.0000m
    5.02000n    700.0000m
    5.03000n    700.0000m
    5.04000n    700.0000m
    5.05000n    700.0000m
    5.06000n    700.0000m
    5.07000n    700.0000m
    5.08000n    700.0000m
    5.09000n    700.0000m
    5.10000n    700.0000m
    5.11000n    700.0000m
    5.12000n    700.0000m
    5.13000n    700.0000m
    5.14000n    700.0000m
    5.15000n    700.0000m
    5.16000n    700.0000m
    5.17000n    700.0000m
    5.18000n    700.0000m
    5.19000n    700.0000m
    5.20000n    700.0000m
    5.21000n    700.0000m
    5.22000n    700.0000m
    5.23000n    700.0000m
    5.24000n    700.0000m
    5.25000n    700.0000m
    5.26000n    700.0000m
    5.27000n    700.0000m
    5.28000n    700.0000m
    5.29000n    700.0000m
    5.30000n    700.0000m
    5.31000n    700.0000m
    5.32000n    700.0000m
    5.33000n    700.0000m
    5.34000n    700.0000m
    5.35000n    700.0000m
    5.36000n    700.0000m
    5.37000n    700.0000m
    5.38000n    700.0000m
    5.39000n    700.0000m
    5.40000n    700.0000m
    5.41000n    700.0000m
    5.42000n    700.0000m
    5.43000n    700.0000m
    5.44000n    700.0000m
    5.45000n    700.0000m
    5.46000n    700.0000m
    5.47000n    700.0000m
    5.48000n    700.0000m
    5.49000n    700.0000m
    5.50000n    700.0000m
    5.51000n    700.0000m
    5.52000n    700.0000m
    5.53000n    700.0000m
    5.54000n    700.0000m
    5.55000n    700.0000m
    5.56000n    700.0000m
    5.57000n    700.0000m
    5.58000n    700.0000m
    5.59000n    700.0000m
    5.60000n    700.0000m
    5.61000n    700.0000m
    5.62000n    700.0000m
    5.63000n    700.0000m
    5.64000n    700.0000m
    5.65000n    700.0000m
    5.66000n    700.0000m
    5.67000n    700.0000m
    5.68000n    700.0000m
    5.69000n    700.0000m
    5.70000n    700.0000m
    5.71000n    700.0000m
    5.72000n    700.0000m
    5.73000n    700.0000m
    5.74000n    700.0000m
    5.75000n    700.0000m
    5.76000n    700.0000m
    5.77000n    700.0000m
    5.78000n    700.0000m
    5.79000n    700.0000m
    5.80000n    700.0000m
    5.81000n    700.0000m
    5.82000n    700.0000m
    5.83000n    700.0000m
    5.84000n    700.0000m
    5.85000n    700.0000m
    5.86000n    700.0000m
    5.87000n    700.0000m
    5.88000n    700.0000m
    5.89000n    700.0000m
    5.90000n    700.0000m
    5.91000n    700.0000m
    5.92000n    700.0000m
    5.93000n    700.0000m
    5.94000n    700.0000m
    5.95000n    700.0000m
    5.96000n    700.0000m
    5.97000n    700.0000m
    5.98000n    700.0000m
    5.99000n    700.0000m
    6.00000n    700.0000m
    6.01000n    350.0000m
    6.02000n      0.
    6.03000n      0.
    6.04000n      0.
    6.05000n      0.
    6.06000n      0.
    6.07000n      0.
    6.08000n      0.
    6.09000n      0.
    6.10000n      0.
    6.11000n      0.
    6.12000n      0.
    6.13000n      0.
    6.14000n      0.
    6.15000n      0.
    6.16000n      0.
    6.17000n      0.
    6.18000n      0.
    6.19000n      0.
    6.20000n      0.
    6.21000n      0.
    6.22000n      0.
    6.23000n      0.
    6.24000n      0.
    6.25000n      0.
    6.26000n      0.
    6.27000n      0.
    6.28000n      0.
    6.29000n      0.
    6.30000n      0.
    6.31000n      0.
    6.32000n      0.
    6.33000n      0.
    6.34000n      0.
    6.35000n      0.
    6.36000n      0.
    6.37000n      0.
    6.38000n      0.
    6.39000n      0.
    6.40000n      0.
    6.41000n      0.
    6.42000n      0.
    6.43000n      0.
    6.44000n      0.
    6.45000n      0.
    6.46000n      0.
    6.47000n      0.
    6.48000n      0.
    6.49000n      0.
    6.50000n      0.
    6.51000n      0.
    6.52000n      0.
    6.53000n      0.
    6.54000n      0.
    6.55000n      0.
    6.56000n      0.
    6.57000n      0.
    6.58000n      0.
    6.59000n      0.
    6.60000n      0.
    6.61000n      0.
    6.62000n      0.
    6.63000n      0.
    6.64000n      0.
    6.65000n      0.
    6.66000n      0.
    6.67000n      0.
    6.68000n      0.
    6.69000n      0.
    6.70000n      0.
    6.71000n      0.
    6.72000n      0.
    6.73000n      0.
    6.74000n      0.
    6.75000n      0.
    6.76000n      0.
    6.77000n      0.
    6.78000n      0.
    6.79000n      0.
    6.80000n      0.
    6.81000n      0.
    6.82000n      0.
    6.83000n      0.
    6.84000n      0.
    6.85000n      0.
    6.86000n      0.
    6.87000n      0.
    6.88000n      0.
    6.89000n      0.
    6.90000n      0.
    6.91000n      0.
    6.92000n      0.
    6.93000n      0.
    6.94000n      0.
    6.95000n      0.
    6.96000n      0.
    6.97000n      0.
    6.98000n      0.
    6.99000n      0.
    7.00000n      0.
    7.01000n      0.
    7.02000n      0.
    7.03000n      0.
    7.04000n      0.
    7.05000n      0.
    7.06000n      0.
    7.07000n      0.
    7.08000n      0.
    7.09000n      0.
    7.10000n      0.
    7.11000n      0.
    7.12000n      0.
    7.13000n      0.
    7.14000n      0.
    7.15000n      0.
    7.16000n      0.
    7.17000n      0.
    7.18000n      0.
    7.19000n      0.
    7.20000n      0.
    7.21000n      0.
    7.22000n      0.
    7.23000n      0.
    7.24000n      0.
    7.25000n      0.
    7.26000n      0.
    7.27000n      0.
    7.28000n      0.
    7.29000n      0.
    7.30000n      0.
    7.31000n      0.
    7.32000n      0.
    7.33000n      0.
    7.34000n      0.
    7.35000n      0.
    7.36000n      0.
    7.37000n      0.
    7.38000n      0.
    7.39000n      0.
    7.40000n      0.
    7.41000n      0.
    7.42000n      0.
    7.43000n      0.
    7.44000n      0.
    7.45000n      0.
    7.46000n      0.
    7.47000n      0.
    7.48000n      0.
    7.49000n      0.
    7.50000n      0.
    7.51000n      0.
    7.52000n      0.
    7.53000n      0.
    7.54000n      0.
    7.55000n      0.
    7.56000n      0.
    7.57000n      0.
    7.58000n      0.
    7.59000n      0.
    7.60000n      0.
    7.61000n      0.
    7.62000n      0.
    7.63000n      0.
    7.64000n      0.
    7.65000n      0.
    7.66000n      0.
    7.67000n      0.
    7.68000n      0.
    7.69000n      0.
    7.70000n      0.
    7.71000n      0.
    7.72000n      0.
    7.73000n      0.
    7.74000n      0.
    7.75000n      0.
    7.76000n      0.
    7.77000n      0.
    7.78000n      0.
    7.79000n      0.
    7.80000n      0.
    7.81000n      0.
    7.82000n      0.
    7.83000n      0.
    7.84000n      0.
    7.85000n      0.
    7.86000n      0.
    7.87000n      0.
    7.88000n      0.
    7.89000n      0.
    7.90000n      0.
    7.91000n      0.
    7.92000n      0.
    7.93000n      0.
    7.94000n      0.
    7.95000n      0.
    7.96000n      0.
    7.97000n      0.
    7.98000n      0.
    7.99000n      0.       
    8.00000n      0.
y
 escrita_0=  15.3643p  targ= 882.5072p   trig= 867.1429p
 leitura_0=   2.8143p  targ=   2.8700n   trig=   2.8671n
 escrita_1=  17.1014p  targ=   4.8842n   trig=   4.8671n
 leitura_1=   2.5672p  targ=   6.8697n   trig=   6.8671n
 energia_vdd= -33.0862f  from=   0.          to=   8.0000n

          ***** job concluded
1****** HSPICE -- H-2013.03-SP1 32-BIT (May 29 2013) RHEL32 ******
 ******
 '6t 0.5ghz'

  ******  job statistics summary tnom=  25.000 temp=  25.000 *****


 ******  Machine Information  ******
 CPU:
 model name	: Intel(R) Xeon(R) CPU           E5620  @ 2.40GHz
 cpu MHz	: 2400.116

 OS:
 Linux version 3.2.0-4-amd64 (debian-kernel@lists.debian.org) (gcc version 4.6.3 (Debian 4.6.3-15) ) #1 SMP Debian 3.2.39-2


  ******  HSPICE Threads Information  ******

  Command Line Threads Count :     1
  Available CPU Count        :    16
  Actual Threads Count       :     1


  ******  Circuit Statistics  ******
  # nodes       =      20 # elements   =      36
  # resistors   =       0 # capacitors =       2 # inductors   =       0
  # mutual_inds =       0 # vccs       =       0 # vcvs        =       0
  # cccs        =       0 # ccvs       =       0 # volt_srcs   =       6
  # curr_srcs   =       0 # diodes     =       0 # bjts        =       0
  # jfets       =       0 # mosfets    =      28 # U elements  =       0
  # T elements  =       0 # W elements =       0 # B elements  =       0
  # S elements  =       0 # P elements =       0 # va device   =       0
  # vector_srcs =       0 # N elements =       0


  ******  Runtime Statistics (seconds)  ******

  analysis           time    # points   tot. iter  conv.iter
  op point           0.01           1          11
  transient          0.32         801        1271         478 rev=        81
  readin             0.01
  errchk             0.02
  setup              0.00
  output             0.01


           peak memory used        120.44 megabytes
           total cpu time            0.38 seconds
           total elapsed time        0.58 seconds
           job started at     19:36:46 01/17/2020
           job ended   at     19:36:47 01/17/2020


 lic: Release hspice token(s)
 lic: total license checkout elapse time:        0.20(s)
