Using: /usr/synopsys/hspice_H-2013.03-SP1/hspice/linux/hspice Dice.txt
 ****** HSPICE -- H-2013.03-SP1 32-BIT (May 29 2013) RHEL32 ******              
  Copyright (C) 2013 Synopsys, Inc. All Rights Reserved.                        
  Unpublished-rights reserved under US copyright laws.
  This program is protected by law and is subject to the
  terms and conditions of the license agreement from Synopsys.
  Use of this program is your acceptance to be bound by the
  license agreement. HSPICE is the trademark of Synopsys, Inc.
  Input File: Dice.txt                                                          
  Command line options: Dice.txt
 lic:  
 lic: FLEXlm: v10.9.8 
 lic: USER:   mariahang            HOSTNAME: sagittarius-a 
 lic: HOSTID: 00039988e3a4         PID:      21339 
 lic: Using FLEXlm license file: 
 lic: 27020@localhost 
 lic: Checkout 1 hspice 
 lic: License/Maintenance for hspice will expire on 08-jun-2020/2019.06 
 lic: 1(in_use)/50(total) FLOATING license(s) on SERVER 27020@localhost 
 lic:   
 Init: read install configuration file: /usr/synopsys/hspice_H-2013.03-SP1/hspice/meta.cfg
  **warning** (Escrita.txt:5) Global net name, "gnd", in subckt pin list. The pin will be connected to the local net. Recommend to not use global net names in subckt pin lists.
1****** HSPICE -- H-2013.03-SP1 32-BIT (May 29 2013) RHEL32 ******              
 ******  
 'dice 0.5ghz'

  ******  circuit name directory
 circuit number to circuit name directory
   number circuitname                     definition         multiplier
        0 main circuit
        1 xprecarga.                      pre_carga          1.00 
        2 xescrita.                       escrita            1.00 
1****** HSPICE -- H-2013.03-SP1 32-BIT (May 29 2013) RHEL32 ******              
 ******  
 'dice 0.5ghz'

  ******  mos   model parameters tnom=  25.000 temp=  25.000 *****
 Model Name: nmos_rvt 
 BSIM-MG BULK Model(Level72)
   VERSION =    107  
   L = 2.1e-08 
   D =  4e-08 
   TFIN = 6.5e-09 
   FPITCH = 2.7e-08 
   NF = 1 
   NFIN =      1 
   NGCON = 1 
   ASEO =      0 
   ADEO =      0 
   PSEO =      0 
   PDEO =      0 
   ASEJ =      0 
   ADEJ =      0 
   PSEJ =      0 
   PDEJ =      0 
   CGSP =      0 
   CGDP =      0 
   CDSP =      0 
   NRS =      0 
   NRD =      0 
   LRSD = 2.1e-08 
   XL =  1e-09 
   DTEMP =      0 
   DELVTRAND =      0 
   U0MULT =      1 
   IDS0MULT =      1 
   DEVTYPE = 1 
   BULKMOD = 1 
   COREMOD = 0 
   GEOMOD = 1 
   RDSMOD = 0 
   ASYMMOD = 0 
   IGCMOD = 1 
   IGBMOD = 0 
   GIDLMOD = 1 
   IIMOD = 0 
   NQSMOD = 0 
   SHMOD = 0 
   RGATEMOD = 0 
   RGEOMOD = 0 
   CGEOMOD = 0 
   CAPMOD = 0 
   LINT = -2e-09 
   LL =      0 
   LLN =      1 
   DLC =      0 
   DLCACC =      0 
   DLBIN =      0 
   LLC =      0 
   EOT =  1e-09 
   TOXP = 2.1e-09 
   EOTBOX = 1.4e-07 
   HFIN = 3.2e-08 
   FECH =      1 
   DELTAW =      0 
   FECHCV =      1 
   DELTAWCV =      0 
   NBODY =  1e+22 
   NSD =  2e+26 
   PHIG =  4.372 
   EPSROX =    3.9 
   EPSRSUB =   11.9 
   EASUB =   4.05 
   NI0SUB = 1.1e+16 
   BG0SUB =   1.17 
   NC0SUB = 2.86e+25 
   NGATE =      0 
   CIT =      0 
   CDSC =   0.01 
   CDSCD =   0.01 
   CDSCDR =   0.01 
   DVT0 =   0.05 
   DVT1 =   0.48 
   PHIN =   0.05 
   ETA0 =  0.062 
   ETA0R =  0.062 
   DSUB =   0.35 
   K1RSCE =      0 
   LPE0 =      0 
   DVTSHIFT =      0 
   PHIBE =    0.7 
   K0 =      0 
   K0SI =      1 
   K1 =      0 
   K1SAT =      0 
   QMFACTOR =    2.5 
   QMTCENIV =      0 
   QMTCENCV =      0 
   QMTCENCVA =      0 
   AQMTCEN =      0 
   BQMTCEN = 1.2e-08 
   ETAQM =   0.54 
   QM0 =  0.001 
   PQM =   0.66 
   QM0ACC =  0.001 
   PQMACC =   0.66 
   VSAT =  7e+04 
   AVSAT =      0 
   BVSAT =  1e-07 
   VSAT1 =  7e+04 
   VSAT1R =  7e+04 
   AVSAT1 =      0 
   BVSAT1 =  1e-07 
   DELTAVSAT =   0.28 
   PSAT =      2 
   APSAT =      0 
   BPSAT =      1 
   KSATIV =      2 
   VSATCV =  7e+04 
   AVSATCV =      0 
   BVSATCV =  1e-07 
   MEXP =      4 
   AMEXP =      0 
   BMEXP =      1 
   PTWG =     30 
   PTWGR =     30 
   APTWG =      0 
   BPTWG =  1e-07 
   AT =  0.001 
   TMEXP =      0 
   PTWGT =  0.004 
   U0 = 0.0252 
   ETAMOB =      2 
   UP =      0 
   LPA =      1 
   UA =   0.55 
   AUA =      0 
   BUA =  1e-07 
   UC =      0 
   EU =    1.2 
   AEU =      0 
   BEU =  1e-07 
   UD =      0 
   AUD =      0 
   BUD =  5e-08 
   UCS =      1 
   UTE =   -0.7 
   UTL =      0 
   EMOBT =      0 
   UA1 = 0.001032 
   UC1 = 5.6e-11 
   UD1 =      0 
   UCSTE = -0.004775 
   RDSWMIN =      0 
   RDSW =    200 
   ARDSW =      0 
   BRDSW =  1e-07 
   RSWMIN =      0 
   RSW =     50 
   ARSW =      0 
   BRSW =  1e-07 
   RDWMIN =      0 
   RDW =     50 
   ARDW =      0 
   BRDW =  1e-07 
   RSDR =      0 
   RSDRR =      0 
   RDDR =      0 
   RDDRR =      0 
   PRSDR =      1 
   PRDDR =      1 
   PRWGS =      0 
   PRWGD =      0 
   WR =      1 
   PRT =      0 
   TRSDR =      0 
   TRDDR =      0 
   PDIBL1 =      0 
   PDIBL1R =      0 
   PDIBL2 =  0.002 
   DROUT =      1 
   PVAG =      0 
   PCLM =   0.05 
   APCLM =      0 
   BPCLM =  1e-07 
   PCLMG =      0 
   PCLMCV =   0.05 
   A1 =      0 
   A2 =      0 
   RGEXT =      0 
   RGFIN =  0.001 
   RSHS =      0 
   RSHD =      0 
   HEPI =  1e-08 
   TSILI =  1e-08 
   RHOC =  1e-12 
   RHORSD =      1 
   CRATIO =    0.5 
   DELTAPRSD =      0 
   SDTERM = 0 
   LSP = 4.4e-09 
   EPSRSP =    3.9 
   TGATE =  3e-08 
   TMASK =  3e-08 
   ASILIEND =      0 
   ARSDEND =      0 
   PRSDEND =      0 
   NSDE =  2e+25 
   RGEOA =      1 
   RGEOB =      0 
   RGEOC =      0 
   RGEOD =      0 
   RGEOE =      0 
   CGEOA =      1 
   CGEOB =      0 
   CGEOC =      0 
   CGEOD =      0 
   CGEOE =      1 
   AIGBINV = 0.0111 
   BIGBINV = 0.000949 
   CIGBINV =  0.006 
   EIGBINV =    1.1 
   NIGBINV =      3 
   AIGBACC = 0.0136 
   BIGBACC = 0.00171 
   CIGBACC =  0.075 
   NIGBACC =      1 
   AIGC =  0.014 
   BIGC =  0.005 
   CIGC =   0.25 
   PIGCD =      1 
   DLCIGS =  1e-09 
   AIGS = 0.0115 
   BIGS = 0.00332 
   CIGS =   0.35 
   DLCIGD =  1e-09 
   AIGD = 0.0115 
   BIGD = 0.00332 
   CIGD =   0.35 
   TOXREF = 1.2e-09 
   NTOX =      1 
   POXEDGE =    1.1 
   AGISL =  1e-12 
   BGISL =  1e+07 
   CGISL =    0.5 
   EGISL =   0.35 
   PGISL =      1 
   AGIDL =  1e-12 
   BGIDL =  1e+07 
   CGIDL =    0.5 
   EGIDL =   0.35 
   PGIDL =      1 
   ALPHA0 =      0 
   ALPHA1 =      0 
   BETA0 =      0 
   BETAII0 =      0 
   BETAII1 =      0 
   BETAII2 =    0.1 
   ESATII =  1e+07 
   LII =  5e-10 
   SII0 =    0.5 
   SII1 =    0.1 
   SII2 =      0 
   SIID =      0 
   EOTACC =  1e-10 
   DELVFBACC =      0 
   CFS =      0 
   CFD =      0 
   COVS =      0 
   COVD =      0 
   CGSO = 1.6e-10 
   CGDO = 1.6e-10 
   CGSL =      0 
   CGDL =      0 
   CKAPPAS =    0.6 
   CKAPPAD =    0.6 
   CGBO =      0 
   CGBN =      0 
   CGBL =      0 
   CKAPPAB =    0.6 
   CSDESW =      0 
   CJS = 0.0005 
   CJD = 0.0005 
   CJSWS =  5e-10 
   CJSWD =  5e-10 
   CJSWGS =      0 
   CJSWGD =      0 
   PBS =      1 
   PBD =      1 
   PBSWS =      1 
   PBSWD =      1 
   PBSWGS =      1 
   PBSWGD =      1 
   MJS =    0.5 
   MJD =    0.5 
   MJSWS =   0.33 
   MJSWD =   0.33 
   MJSWGS =   0.33 
   MJSWGD =   0.33 
   SJS =      0 
   SJD =      0 
   SJSWS =      0 
   SJSWD =      0 
   SJSWGS =      0 
   SJSWGD =      0 
   MJS2 =  0.125 
   MJD2 =  0.125 
   MJSWS2 =  0.083 
   MJSWD2 =  0.083 
   MJSWGS2 =  0.083 
   MJSWGD2 =  0.083 
   JSS = 0.0001 
   JSD = 0.0001 
   JSWS =      0 
   JSWD =      0 
   JSWGS =      0 
   JSWGD =      0 
   NJS =      1 
   NJD =      1 
   IJTHSFWD =    0.1 
   IJTHDFWD =    0.1 
   IJTHSREV =    0.1 
   IJTHDREV =    0.1 
   BVS =     10 
   BVD =     10 
   XJBVS =      1 
   XJBVD =      1 
   JTSS =      0 
   JTSD =      0 
   JTSSWS =      0 
   JTSSWD =      0 
   JTSSWGS =      0 
   JTSSWGD =      0 
   JTWEFF =      0 
   NJTS =     20 
   NJTSD =     20 
   NJTSSW =     20 
   NJTSSWD =     20 
   NJTSSWG =     20 
   NJTSSWGD =     20 
   VTSS =     10 
   VTSD =     10 
   VTSSWS =     10 
   VTSSWD =     10 
   VTSSWGS =     10 
   VTSSWGD =     10 
   LINTIGEN =      0 
   NTGEN =      1 
   AIGEN =      0 
   BIGEN =      0 
   XRCRG1 =     12 
   XRCRG2 =      1 
   NSEG = 5 
   EF =      1 
   EM = 4.1e+07 
   NOIA = 6.25e+39 
   NOIB = 3.125e+24 
   NOIC = 8.75e+07 
   NTNOI =      1 
   TNOM =     25 
   TBGASUB = 0.000473 
   TBGBSUB =    636 
   KT1 =      0 
   KT1L =      0 
   TSS =      0 
   IIT =   -0.5 
   TII =      0 
   TGIDL = -0.007 
   IGT =    2.5 
   TCJ =      0 
   TCJSW =      0 
   TCJSWG =      0 
   TPB =      0 
   TPBSW =      0 
   TPBSWG =      0 
   XTIS =      3 
   XTID =      3 
   XTSS =   0.02 
   XTSD =   0.02 
   XTSSWS =   0.02 
   XTSSWD =   0.02 
   XTSSWGS =   0.02 
   XTSSWGD =   0.02 
   TNJTS =      0 
   TNJTSD =      0 
   TNJTSSW =      0 
   TNJTSSWD =      0 
   TNJTSSWG =      0 
   TNJTSSWGD =      0 
   RTH0 =  0.225 
   CTH0 = 1.243e-06 
   WTH0 = 2.6e-07 
   LNBODY =      0 
   NNBODY =      0 
   PNBODY =      0 
   LPHIG =      0 
   NPHIG =      0 
   PPHIG =      0 
   LNGATE =      0 
   NNGATE =      0 
   PNGATE =      0 
   LCIT =      0 
   NCIT =      0 
   PCIT =      0 
   LCDSC =      0 
   NCDSC =      0 
   PCDSC =      0 
   LCDSCD =  5e-05 
   NCDSCD =      0 
   PCDSCD =      0 
   LCDSCDR =  5e-05 
   NCDSCDR =      0 
   PCDSCDR =      0 
   LDVT0 =      0 
   NDVT0 =      0 
   PDVT0 =      0 
   LDVT1 =      0 
   NDVT1 =      0 
   PDVT1 =      0 
   LPHIN =      0 
   NPHIN =      0 
   PPHIN =      0 
   LETA0 =      0 
   NETA0 =      0 
   PETA0 =      0 
   LETA0R =      0 
   NETA0R =      0 
   PETA0R =      0 
   LDSUB =      0 
   NDSUB =      0 
   PDSUB =      0 
   LK1RSCE =      0 
   NK1RSCE =      0 
   PK1RSCE =      0 
   LLPE0 =      0 
   NLPE0 =      0 
   PLPE0 =      0 
   LDVTSHIFT =      0 
   NDVTSHIFT =      0 
   PDVTSHIFT =      0 
   LPHIBE =      0 
   NPHIBE =      0 
   PPHIBE =      0 
   LK0 =      0 
   NK0 =      0 
   PK0 =      0 
   LK0SI =      0 
   NK0SI =      0 
   PK0SI =      0 
   LK1 =      0 
   NK1 =      0 
   PK1 =      0 
   LK1SAT =      0 
   NK1SAT =      0 
   PK1SAT =      0 
   LDVTB =      0 
   NDVTB =      0 
   PDVTB =      0 
   LLPEB =      0 
   NLPEB =      0 
   PLPEB =      0 
   LQMFACTOR =      0 
   NQMFACTOR =      0 
   PQMFACTOR =      0 
   LQMTCENIV =      0 
   NQMTCENIV =      0 
   PQMTCENIV =      0 
   LQMTCENCV =      0 
   NQMTCENCV =      0 
   PQMTCENCV =      0 
   LQMTCENCVA =      0 
   NQMTCENCVA =      0 
   PQMTCENCVA =      0 
   LVSAT =      0 
   NVSAT =      0 
   PVSAT =      0 
   LVSAT1 =      0 
   NVSAT1 =      0 
   PVSAT1 =      0 
   LVSAT1R =      0 
   NVSAT1R =      0 
   PVSAT1R =      0 
   LPSAT =      0 
   NPSAT =      0 
   PPSAT =      0 
   LDELTAVSAT =      0 
   NDELTAVSAT =      0 
   PDELTAVSAT =      0 
   LKSATIV =      0 
   NKSATIV =      0 
   PKSATIV =      0 
   LVSATCV =      0 
   NVSATCV =      0 
   PVSATCV =      0 
   LMEXP =      0 
   NMEXP =      0 
   PMEXP =      0 
   LPTWG =      0 
   NPTWG =      0 
   PPTWG =      0 
   LPTWGR =      0 
   NPTWGR =      0 
   PPTWGR =      0 
   LU0 =      0 
   NU0 =      0 
   PU0 =      0 
   LETAMOB =      0 
   NETAMOB =      0 
   PETAMOB =      0 
   LUP =      0 
   NUP =      0 
   PUP =      0 
   LUA =      0 
   NUA =      0 
   PUA =      0 
   LUC =      0 
   NUC =      0 
   PUC =      0 
   LEU =      0 
   NEU =      0 
   PEU =      0 
   LUD =      0 
   NUD =      0 
   PUD =      0 
   LUCS =      0 
   NUCS =      0 
   PUCS =      0 
   LPCLM =      0 
   NPCLM =      0 
   PPCLM =      0 
   LPCLMG =      0 
   NPCLMG =      0 
   PPCLMG =      0 
   LPCLMCV =      0 
   NPCLMCV =      0 
   PPCLMCV =      0 
   LA1 =      0 
   NA1 =      0 
   PA1 =      0 
   LA2 =      0 
   NA2 =      0 
   PA2 =      0 
   LRDSW =    0.2 
   NRDSW =      0 
   PRDSW =      0 
   LRSW =      0 
   NRSW =      0 
   PRSW =      0 
   LRDW =      0 
   NRDW =      0 
   PRDW =      0 
   LPRWGS =      0 
   NPRWGS =      0 
   PPRWGS =      0 
   LPRWGD =      0 
   NPRWGD =      0 
   PPRWGD =      0 
   LWR =      0 
   NWR =      0 
   PWR =      0 
   LPDIBL1 =      0 
   NPDIBL1 =      0 
   PPDIBL1 =      0 
   LPDIBL1R =      0 
   NPDIBL1R =      0 
   PPDIBL1R =      0 
   LPDIBL2 =      0 
   NPDIBL2 =      0 
   PPDIBL2 =      0 
   LDROUT =      0 
   NDROUT =      0 
   PDROUT =      0 
   LPVAG =      0 
   NPVAG =      0 
   PPVAG =      0 
   LAIGBINV =      0 
   NAIGBINV =      0 
   PAIGBINV =      0 
   LBIGBINV =      0 
   NBIGBINV =      0 
   PBIGBINV =      0 
   LCIGBINV =      0 
   NCIGBINV =      0 
   PCIGBINV =      0 
   LEIGBINV =      0 
   NEIGBINV =      0 
   PEIGBINV =      0 
   LNIGBINV =      0 
   NNIGBINV =      0 
   PNIGBINV =      0 
   LAIGBACC =      0 
   NAIGBACC =      0 
   PAIGBACC =      0 
   LBIGBACC =      0 
   NBIGBACC =      0 
   PBIGBACC =      0 
   LCIGBACC =      0 
   NCIGBACC =      0 
   PCIGBACC =      0 
   LNIGBACC =      0 
   NNIGBACC =      0 
   PNIGBACC =      0 
   LAIGC =      0 
   NAIGC =      0 
   PAIGC =      0 
   LBIGC =      0 
   NBIGC =      0 
   PBIGC =      0 
   LCIGC =      0 
   NCIGC =      0 
   PCIGC =      0 
   LPIGCD =      0 
   NPIGCD =      0 
   PPIGCD =      0 
   LAIGS =      0 
   NAIGS =      0 
   PAIGS =      0 
   LBIGS =      0 
   NBIGS =      0 
   PBIGS =      0 
   LCIGS =      0 
   NCIGS =      0 
   PCIGS =      0 
   LAIGD =      0 
   NAIGD =      0 
   PAIGD =      0 
   LBIGD =      0 
   NBIGD =      0 
   PBIGD =      0 
   LCIGD =      0 
   NCIGD =      0 
   PCIGD =      0 
   LNTOX =      0 
   NNTOX =      0 
   PNTOX =      0 
   LPOXEDGE =      0 
   NPOXEDGE =      0 
   PPOXEDGE =      0 
   LAGISL =      0 
   NAGISL =      0 
   PAGISL =      0 
   LBGISL =      0 
   NBGISL =      0 
   PBGISL =      0 
   LCGISL =      0 
   NCGISL =      0 
   PCGISL =      0 
   LEGISL =      0 
   NEGISL =      0 
   PEGISL =      0 
   LPGISL =      0 
   NPGISL =      0 
   PPGISL =      0 
   LAGIDL =      0 
   NAGIDL =      0 
   PAGIDL =      0 
   LBGIDL =      0 
   NBGIDL =      0 
   PBGIDL =      0 
   LCGIDL =      0 
   NCGIDL =      0 
   PCGIDL =      0 
   LEGIDL =      0 
   NEGIDL =      0 
   PEGIDL =      0 
   LPGIDL =      0 
   NPGIDL =      0 
   PPGIDL =      0 
   LALPHA0 =      0 
   NALPHA0 =      0 
   PALPHA0 =      0 
   LALPHA1 =      0 
   NALPHA1 =      0 
   PALPHA1 =      0 
   LBETA0 =      0 
   NBETA0 =      0 
   PBETA0 =      0 
   LBETAII0 =      0 
   NBETAII0 =      0 
   PBETAII0 =      0 
   LBETAII1 =      0 
   NBETAII1 =      0 
   PBETAII1 =      0 
   LBETAII2 =      0 
   NBETAII2 =      0 
   PBETAII2 =      0 
   LESATII =      0 
   NESATII =      0 
   PESATII =      0 
   LLII =      0 
   NLII =      0 
   PLII =      0 
   LSII0 =      0 
   NSII0 =      0 
   PSII0 =      0 
   LSII1 =      0 
   NSII1 =      0 
   PSII1 =      0 
   LSII2 =      0 
   NSII2 =      0 
   PSII2 =      0 
   LSIID =      0 
   NSIID =      0 
   PSIID =      0 
   LCFS =      0 
   NCFS =      0 
   PCFS =      0 
   LCFD =      0 
   NCFD =      0 
   PCFD =      0 
   LCOVS =      0 
   NCOVS =      0 
   PCOVS =      0 
   LCOVD =      0 
   NCOVD =      0 
   PCOVD =      0 
   LCGSL =      0 
   NCGSL =      0 
   PCGSL =      0 
   LCGDL =      0 
   NCGDL =      0 
   PCGDL =      0 
   LCKAPPAS =      0 
   NCKAPPAS =      0 
   PCKAPPAS =      0 
   LCKAPPAD =      0 
   NCKAPPAD =      0 
   PCKAPPAD =      0 
   LCGBL =      0 
   NCGBL =      0 
   PCGBL =      0 
   LCKAPPAB =      0 
   NCKAPPAB =      0 
   PCKAPPAB =      0 
   LNTGEN =      0 
   NNTGEN =      0 
   PNTGEN =      0 
   LAIGEN =      0 
   NAIGEN =      0 
   PAIGEN =      0 
   LBIGEN =      0 
   NBIGEN =      0 
   PBIGEN =      0 
   LXRCRG1 =      0 
   NXRCRG1 =      0 
   PXRCRG1 =      0 
   LXRCRG2 =      0 
   NXRCRG2 =      0 
   PXRCRG2 =      0 
   LINTNOI =      0 
   LUTE =      0 
   NUTE =      0 
   PUTE =      0 
   LUTL =      0 
   NUTL =      0 
   PUTL =      0 
   LEMOBT =      0 
   NEMOBT =      0 
   PEMOBT =      0 
   LUA1 =      0 
   NUA1 =      0 
   PUA1 =      0 
   LUC1 =      0 
   NUC1 =      0 
   PUC1 =      0 
   LUD1 =      0 
   NUD1 =      0 
   PUD1 =      0 
   LUCSTE =      0 
   NUCSTE =      0 
   PUCSTE =      0 
   LPTWGT =      0 
   NPTWGT =      0 
   PPTWGT =      0 
   LAT =      0 
   NAT =      0 
   PAT =      0 
   LSTTHETASAT =      0 
   NSTTHETASAT =      0 
   PSTTHETASAT =      0 
   LPRT =      0 
   NPRT =      0 
   PPRT =      0 
   LKT1 =      0 
   NKT1 =      0 
   PKT1 =      0 
   LTSS =      0 
   NTSS =      0 
   PTSS =      0 
   LIIT =      0 
   NIIT =      0 
   PIIT =      0 
   LTII =      0 
   NTII =      0 
   PTII =      0 
   LTGIDL =      0 
   NTGIDL =      0 
   PTGIDL =      0 
   LIGT =      0 
   NIGT =      0 
   PIGT =      0 
   Imin =  1e-15 
   K01 =      0 
   K0SI1 =      0 
   K1SI =      1 
   K1SI1 =      0 
   K11 =      0 
   K1SAT1 =      0 
   DELTAVSATCV =   0.28 
   PSATCV =      2 
   APSATCV =      0 
   BPSATCV =      1 
   A11 =      0 
   A21 =      0 
   AIGBINV1 =      0 
   AIGBACC1 =      0 
   AIGC1 =      0 
   AIGS1 =      0 
   AIGD1 =      0 
   TOXG = 2.1e-09 
   ALPHA01 =      0 
   ALPHA11 =      0 
   ALPHAII0 =      0 
   ALPHAII01 =      0 
   ALPHAII1 =      0 
   ALPHAII11 =      0 
   LK01 =      0 
   NK01 =      0 
   PK01 =      0 
   LK0SI1 =      0 
   NK0SI1 =      0 
   PK0SI1 =      0 
   LK1SI =      0 
   NK1SI =      0 
   PK1SI =      0 
   LK1SI1 =      0 
   NK1SI1 =      0 
   PK1SI1 =      0 
   LK11 =      0 
   NK11 =      0 
   PK11 =      0 
   LK1SAT1 =      0 
   NK1SAT1 =      0 
   PK1SAT1 =      0 
   LPSATCV =      0 
   NPSATCV =      0 
   PPSATCV =      0 
   LDELTAVSATCV =      0 
   NDELTAVSATCV =      0 
   PDELTAVSATCV =      0 
   LA11 =      0 
   NA11 =      0 
   PA11 =      0 
   LA21 =      0 
   NA21 =      0 
   PA21 =      0 
   LAIGBINV1 =      0 
   NAIGBINV1 =      0 
   PAIGBINV1 =      0 
   LAIGBACC1 =      0 
   NAIGBACC1 =      0 
   PAIGBACC1 =      0 
   LAIGC1 =      0 
   NAIGC1 =      0 
   PAIGC1 =      0 
   LAIGS1 =      0 
   NAIGS1 =      0 
   PAIGS1 =      0 
   LAIGD1 =      0 
   NAIGD1 =      0 
   PAIGD1 =      0 
   LALPHAII0 =      0 
   NALPHAII0 =      0 
   PALPHAII0 =      0 
   LALPHAII1 =      0 
   NALPHAII1 =      0 
   PALPHAII1 =      0 
   CGEO1SW = 0 
   NBODYN1 =      0 
   NBODYN2 =  1e+05 
   PHIGL =      0 
   PHIGN1 =      0 
   PHIGN2 =  1e+05 
   CDSCN1 =      0 
   CDSCN2 =  1e+05 
   CDSCDN1 =      0 
   CDSCDN2 =  1e+05 
   CDSCDRN1 =      0 
   CDSCDRN2 =  1e+05 
   DVT1SS =   0.48 
   ETA0N1 =      0 
   ETA0N2 =  1e+05 
   TETA0 =      0 
   TETA0R =      0 
   DVTP0 =      0 
   DVTP1 =      0 
   VSATN1 =      0 
   VSATN2 =  1e+05 
   VSAT1N1 =      0 
   VSAT1N2 =  1e+05 
   VSAT1RN1 =      0 
   VSAT1RN2 =  1e+05 
   MEXPR =      4 
   AMEXPR =      0 
   BMEXPR =      1 
   TMEXPR =      0 
   U0N1 =      0 
   U0N2 =  1e+05 
   CHARGEWF =      0 
   LDVT1SS =      0 
   NDVT1SS =      0 
   PDVT1SS =      0 
   LMEXPR =      0 
   NMEXPR =      0 
   PMEXPR =      0 
   Lmin =      0 m
   Lmax =      1 m
   NFINmin =      0 
   NFINmax =      1 
 Model Name: pmos_rvt 
 BSIM-MG BULK Model(Level72)
   VERSION =    107  
   L = 2.1e-08 
   D =  4e-08 
   TFIN = 6.5e-09 
   FPITCH = 2.7e-08 
   NF = 1 
   NFIN =      1 
   NGCON = 1 
   ASEO =      0 
   ADEO =      0 
   PSEO =      0 
   PDEO =      0 
   ASEJ =      0 
   ADEJ =      0 
   PSEJ =      0 
   PDEJ =      0 
   CGSP =      0 
   CGDP =      0 
   CDSP =      0 
   NRS =      0 
   NRD =      0 
   LRSD = 2.1e-08 
   XL =  1e-09 
   DTEMP =      0 
   DELVTRAND =      0 
   U0MULT =      1 
   IDS0MULT =      1 
   DEVTYPE = 0 
   BULKMOD = 1 
   COREMOD = 0 
   GEOMOD = 1 
   RDSMOD = 0 
   ASYMMOD = 0 
   IGCMOD = 1 
   IGBMOD = 0 
   GIDLMOD = 1 
   IIMOD = 0 
   NQSMOD = 0 
   SHMOD = 0 
   RGATEMOD = 0 
   RGEOMOD = 0 
   CGEOMOD = 0 
   CAPMOD = 0 
   LINT = -2.5e-09 
   LL =      0 
   LLN =      1 
   DLC =      0 
   DLCACC =      0 
   DLBIN =      0 
   LLC =      0 
   EOT =  1e-09 
   TOXP = 2.1e-09 
   EOTBOX = 1.4e-07 
   HFIN = 3.2e-08 
   FECH =      1 
   DELTAW =      0 
   FECHCV =      1 
   DELTAWCV =      0 
   NBODY =  1e+22 
   NSD =  2e+26 
   PHIG =  4.811 
   EPSROX =    3.9 
   EPSRSUB =   11.9 
   EASUB =   4.05 
   NI0SUB = 1.1e+16 
   BG0SUB =   1.17 
   NC0SUB = 2.86e+25 
   NGATE =      0 
   CIT =      0 
   CDSC = 0.003469 
   CDSCD = 0.001486 
   CDSCDR = 0.001486 
   DVT0 =   0.05 
   DVT1 =    0.4 
   PHIN =   0.05 
   ETA0 =   0.09 
   ETA0R =   0.09 
   DSUB =   0.24 
   K1RSCE =      0 
   LPE0 =      0 
   DVTSHIFT =      0 
   PHIBE =    0.7 
   K0 =      0 
   K0SI =      1 
   K1 =      0 
   K1SAT =      0 
   QMFACTOR =      0 
   QMTCENIV =      0 
   QMTCENCV =      0 
   QMTCENCVA =      0 
   AQMTCEN =      0 
   BQMTCEN = 1.2e-08 
   ETAQM =   0.54 
   QM0 = 2.183e-12 
   PQM =   0.66 
   QM0ACC =  0.001 
   PQMACC =   0.66 
   VSAT =  6e+04 
   AVSAT =      0 
   BVSAT =  1e-07 
   VSAT1 =  6e+04 
   VSAT1R =  6e+04 
   AVSAT1 =      0 
   BVSAT1 =  1e-07 
   DELTAVSAT =   0.22 
   PSAT =      2 
   APSAT =      0 
   BPSAT =      1 
   KSATIV =  1.592 
   VSATCV =  6e+04 
   AVSATCV =      0 
   BVSATCV =  1e-07 
   MEXP =  2.491 
   AMEXP =      0 
   BMEXP =      1 
   PTWG =     25 
   PTWGR =     25 
   APTWG =      0 
   BPTWG =  1e-07 
   AT =  0.001 
   TMEXP =      0 
   PTWGT =  0.004 
   U0 = 0.0209 
   ETAMOB =      4 
   UP =      0 
   LPA =      1 
   UA =  1.133 
   AUA =      0 
   BUA =  1e-07 
   UC =      0 
   EU =   0.05 
   AEU =      0 
   BEU =  1e-07 
   UD = 0.0105 
   AUD =      0 
   BUD =  5e-08 
   UCS = 0.2672 
   UTE =   -1.2 
   UTL =      0 
   EMOBT =      0 
   UA1 = 0.001032 
   UC1 = 5.6e-11 
   UD1 =      0 
   UCSTE = -0.004775 
   RDSWMIN =      0 
   RDSW =    200 
   ARDSW =      0 
   BRDSW =  1e-07 
   RSWMIN =      0 
   RSW =     50 
   ARSW =      0 
   BRSW =  1e-07 
   RDWMIN =      0 
   RDW =     50 
   ARDW =      0 
   BRDW =  1e-07 
   RSDR =      0 
   RSDRR =      0 
   RDDR =      0 
   RDDRR =      0 
   PRSDR =      1 
   PRDDR =      1 
   PRWGS =      0 
   PRWGD =      0 
   WR =      1 
   PRT =      0 
   TRSDR =      0 
   TRDDR =      0 
   PDIBL1 =    800 
   PDIBL1R =    800 
   PDIBL2 = 0.005704 
   DROUT =   4.97 
   PVAG =    200 
   PCLM =   0.01 
   APCLM =      0 
   BPCLM =  1e-07 
   PCLMG =      1 
   PCLMCV =   0.01 
   A1 =      0 
   A2 =      0 
   RGEXT =      0 
   RGFIN =  0.001 
   RSHS =      0 
   RSHD =      0 
   HEPI =  1e-08 
   TSILI =  1e-08 
   RHOC =  1e-12 
   RHORSD =      1 
   CRATIO =    0.5 
   DELTAPRSD =      0 
   SDTERM = 0 
   LSP = 4.4e-09 
   EPSRSP =    3.9 
   TGATE =  3e-08 
   TMASK =  3e-08 
   ASILIEND =      0 
   ARSDEND =      0 
   PRSDEND =      0 
   NSDE =  2e+25 
   RGEOA =      1 
   RGEOB =      0 
   RGEOC =      0 
   RGEOD =      0 
   RGEOE =      0 
   CGEOA =      1 
   CGEOB =      0 
   CGEOC =      0 
   CGEOD =      0 
   CGEOE =      1 
   AIGBINV = 0.0111 
   BIGBINV = 0.000949 
   CIGBINV =  0.006 
   EIGBINV =    1.1 
   NIGBINV =      3 
   AIGBACC = 0.0136 
   BIGBACC = 0.00171 
   CIGBACC =  0.075 
   NIGBACC =      1 
   AIGC =  0.007 
   BIGC = 0.0015 
   CIGC =      1 
   PIGCD =      1 
   DLCIGS =  5e-09 
   AIGS =  0.006 
   BIGS = 0.001944 
   CIGS =      1 
   DLCIGD =  5e-09 
   AIGD =  0.006 
   BIGD = 0.001944 
   CIGD =      1 
   TOXREF = 1.2e-09 
   NTOX =      1 
   POXEDGE =  1.152 
   AGISL =  2e-12 
   BGISL = 1.5e+08 
   CGISL =    0.5 
   EGISL =  1.142 
   PGISL =      1 
   AGIDL =  2e-12 
   BGIDL = 1.5e+08 
   CGIDL =    0.5 
   EGIDL =  1.142 
   PGIDL =      1 
   ALPHA0 =      0 
   ALPHA1 =      0 
   BETA0 =      0 
   BETAII0 =      0 
   BETAII1 =      0 
   BETAII2 =    0.1 
   ESATII =  1e+07 
   LII =  5e-10 
   SII0 =    0.5 
   SII1 =    0.1 
   SII2 =      0 
   SIID =      0 
   EOTACC =  3e-10 
   DELVFBACC =      0 
   CFS =      0 
   CFD =      0 
   COVS =      0 
   COVD =      0 
   CGSO = 1.6e-10 
   CGDO = 1.6e-10 
   CGSL =      0 
   CGDL =      0 
   CKAPPAS =    0.6 
   CKAPPAD =    0.6 
   CGBO =      0 
   CGBN =      0 
   CGBL =      0 
   CKAPPAB =    0.6 
   CSDESW =      0 
   CJS = 0.0005 
   CJD = 0.0005 
   CJSWS =  5e-10 
   CJSWD =  5e-10 
   CJSWGS =      0 
   CJSWGD =      0 
   PBS =      1 
   PBD =      1 
   PBSWS =      1 
   PBSWD =      1 
   PBSWGS =      1 
   PBSWGD =      1 
   MJS =    0.5 
   MJD =    0.5 
   MJSWS =   0.33 
   MJSWD =   0.33 
   MJSWGS =   0.33 
   MJSWGD =   0.33 
   SJS =      0 
   SJD =      0 
   SJSWS =      0 
   SJSWD =      0 
   SJSWGS =      0 
   SJSWGD =      0 
   MJS2 =  0.125 
   MJD2 =  0.125 
   MJSWS2 =  0.083 
   MJSWD2 =  0.083 
   MJSWGS2 =  0.083 
   MJSWGD2 =  0.083 
   JSS = 0.0001 
   JSD = 0.0001 
   JSWS =      0 
   JSWD =      0 
   JSWGS =      0 
   JSWGD =      0 
   NJS =      1 
   NJD =      1 
   IJTHSFWD =    0.1 
   IJTHDFWD =    0.1 
   IJTHSREV =    0.1 
   IJTHDREV =    0.1 
   BVS =     10 
   BVD =     10 
   XJBVS =      1 
   XJBVD =      1 
   JTSS =      0 
   JTSD =      0 
   JTSSWS =      0 
   JTSSWD =      0 
   JTSSWGS =      0 
   JTSSWGD =      0 
   JTWEFF =      0 
   NJTS =     20 
   NJTSD =     20 
   NJTSSW =     20 
   NJTSSWD =     20 
   NJTSSWG =     20 
   NJTSSWGD =     20 
   VTSS =     10 
   VTSD =     10 
   VTSSWS =     10 
   VTSSWD =     10 
   VTSSWGS =     10 
   VTSSWGD =     10 
   LINTIGEN =      0 
   NTGEN =      1 
   AIGEN =      0 
   BIGEN =      0 
   XRCRG1 =     12 
   XRCRG2 =      1 
   NSEG = 5 
   EF =      1 
   EM = 4.1e+07 
   NOIA = 6.25e+39 
   NOIB = 3.125e+24 
   NOIC = 8.75e+07 
   NTNOI =      1 
   TNOM =     25 
   TBGASUB = 0.000473 
   TBGBSUB =    636 
   KT1 =      0 
   KT1L =      0 
   TSS =      0 
   IIT =   -0.5 
   TII =      0 
   TGIDL = -0.007 
   IGT =    2.5 
   TCJ =      0 
   TCJSW =      0 
   TCJSWG =      0 
   TPB =      0 
   TPBSW =      0 
   TPBSWG =      0 
   XTIS =      3 
   XTID =      3 
   XTSS =   0.02 
   XTSD =   0.02 
   XTSSWS =   0.02 
   XTSSWD =   0.02 
   XTSSWGS =   0.02 
   XTSSWGD =   0.02 
   TNJTS =      0 
   TNJTSD =      0 
   TNJTSSW =      0 
   TNJTSSWD =      0 
   TNJTSSWG =      0 
   TNJTSSWGD =      0 
   RTH0 =   0.15 
   CTH0 = 1.243e-06 
   WTH0 = 2.6e-07 
   LNBODY =      0 
   NNBODY =      0 
   PNBODY =      0 
   LPHIG =      0 
   NPHIG =      0 
   PPHIG =      0 
   LNGATE =      0 
   NNGATE =      0 
   PNGATE =      0 
   LCIT =      0 
   NCIT =      0 
   PCIT =      0 
   LCDSC =      0 
   NCDSC =      0 
   PCDSC =      0 
   LCDSCD =      0 
   NCDSCD =      0 
   PCDSCD =      0 
   LCDSCDR =      0 
   NCDSCDR =      0 
   PCDSCDR =      0 
   LDVT0 =      0 
   NDVT0 =      0 
   PDVT0 =      0 
   LDVT1 =      0 
   NDVT1 =      0 
   PDVT1 =      0 
   LPHIN =      0 
   NPHIN =      0 
   PPHIN =      0 
   LETA0 =      0 
   NETA0 =      0 
   PETA0 =      0 
   LETA0R =      0 
   NETA0R =      0 
   PETA0R =      0 
   LDSUB =      0 
   NDSUB =      0 
   PDSUB =      0 
   LK1RSCE =      0 
   NK1RSCE =      0 
   PK1RSCE =      0 
   LLPE0 =      0 
   NLPE0 =      0 
   PLPE0 =      0 
   LDVTSHIFT =      0 
   NDVTSHIFT =      0 
   PDVTSHIFT =      0 
   LPHIBE =      0 
   NPHIBE =      0 
   PPHIBE =      0 
   LK0 =      0 
   NK0 =      0 
   PK0 =      0 
   LK0SI =      0 
   NK0SI =      0 
   PK0SI =      0 
   LK1 =      0 
   NK1 =      0 
   PK1 =      0 
   LK1SAT =      0 
   NK1SAT =      0 
   PK1SAT =      0 
   LDVTB =      0 
   NDVTB =      0 
   PDVTB =      0 
   LLPEB =      0 
   NLPEB =      0 
   PLPEB =      0 
   LQMFACTOR =      0 
   NQMFACTOR =      0 
   PQMFACTOR =      0 
   LQMTCENIV =      0 
   NQMTCENIV =      0 
   PQMTCENIV =      0 
   LQMTCENCV =      0 
   NQMTCENCV =      0 
   PQMTCENCV =      0 
   LQMTCENCVA =      0 
   NQMTCENCVA =      0 
   PQMTCENCVA =      0 
   LVSAT =   1441 
   NVSAT =      0 
   PVSAT =      0 
   LVSAT1 =   1441 
   NVSAT1 =      0 
   PVSAT1 =      0 
   LVSAT1R =   1441 
   NVSAT1R =      0 
   PVSAT1R =      0 
   LPSAT =      0 
   NPSAT =      0 
   PPSAT =      0 
   LDELTAVSAT =      0 
   NDELTAVSAT =      0 
   PDELTAVSAT =      0 
   LKSATIV =      0 
   NKSATIV =      0 
   PKSATIV =      0 
   LVSATCV =      0 
   NVSATCV =      0 
   PVSATCV =      0 
   LMEXP =      0 
   NMEXP =      0 
   PMEXP =      0 
   LPTWG =      0 
   NPTWG =      0 
   PPTWG =      0 
   LPTWGR =      0 
   NPTWGR =      0 
   PPTWGR =      0 
   LU0 =      0 
   NU0 =      0 
   PU0 =      0 
   LETAMOB =      0 
   NETAMOB =      0 
   PETAMOB =      0 
   LUP =      0 
   NUP =      0 
   PUP =      0 
   LUA =      0 
   NUA =      0 
   PUA =      0 
   LUC =      0 
   NUC =      0 
   PUC =      0 
   LEU =      0 
   NEU =      0 
   PEU =      0 
   LUD =      0 
   NUD =      0 
   PUD =      0 
   LUCS =      0 
   NUCS =      0 
   PUCS =      0 
   LPCLM =      0 
   NPCLM =      0 
   PPCLM =      0 
   LPCLMG =      0 
   NPCLMG =      0 
   PPCLMG =      0 
   LPCLMCV =      0 
   NPCLMCV =      0 
   PPCLMCV =      0 
   LA1 =      0 
   NA1 =      0 
   PA1 =      0 
   LA2 =      0 
   NA2 =      0 
   PA2 =      0 
   LRDSW =    1.3 
   NRDSW =      0 
   PRDSW =      0 
   LRSW =      0 
   NRSW =      0 
   PRSW =      0 
   LRDW =      0 
   NRDW =      0 
   PRDW =      0 
   LPRWGS =      0 
   NPRWGS =      0 
   PPRWGS =      0 
   LPRWGD =      0 
   NPRWGD =      0 
   PPRWGD =      0 
   LWR =      0 
   NWR =      0 
   PWR =      0 
   LPDIBL1 =      0 
   NPDIBL1 =      0 
   PPDIBL1 =      0 
   LPDIBL1R =      0 
   NPDIBL1R =      0 
   PPDIBL1R =      0 
   LPDIBL2 =      0 
   NPDIBL2 =      0 
   PPDIBL2 =      0 
   LDROUT =      0 
   NDROUT =      0 
   PDROUT =      0 
   LPVAG =      0 
   NPVAG =      0 
   PPVAG =      0 
   LAIGBINV =      0 
   NAIGBINV =      0 
   PAIGBINV =      0 
   LBIGBINV =      0 
   NBIGBINV =      0 
   PBIGBINV =      0 
   LCIGBINV =      0 
   NCIGBINV =      0 
   PCIGBINV =      0 
   LEIGBINV =      0 
   NEIGBINV =      0 
   PEIGBINV =      0 
   LNIGBINV =      0 
   NNIGBINV =      0 
   PNIGBINV =      0 
   LAIGBACC =      0 
   NAIGBACC =      0 
   PAIGBACC =      0 
   LBIGBACC =      0 
   NBIGBACC =      0 
   PBIGBACC =      0 
   LCIGBACC =      0 
   NCIGBACC =      0 
   PCIGBACC =      0 
   LNIGBACC =      0 
   NNIGBACC =      0 
   PNIGBACC =      0 
   LAIGC =      0 
   NAIGC =      0 
   PAIGC =      0 
   LBIGC =      0 
   NBIGC =      0 
   PBIGC =      0 
   LCIGC =      0 
   NCIGC =      0 
   PCIGC =      0 
   LPIGCD =      0 
   NPIGCD =      0 
   PPIGCD =      0 
   LAIGS =      0 
   NAIGS =      0 
   PAIGS =      0 
   LBIGS =      0 
   NBIGS =      0 
   PBIGS =      0 
   LCIGS =      0 
   NCIGS =      0 
   PCIGS =      0 
   LAIGD =      0 
   NAIGD =      0 
   PAIGD =      0 
   LBIGD =      0 
   NBIGD =      0 
   PBIGD =      0 
   LCIGD =      0 
   NCIGD =      0 
   PCIGD =      0 
   LNTOX =      0 
   NNTOX =      0 
   PNTOX =      0 
   LPOXEDGE =      0 
   NPOXEDGE =      0 
   PPOXEDGE =      0 
   LAGISL =      0 
   NAGISL =      0 
   PAGISL =      0 
   LBGISL =      0 
   NBGISL =      0 
   PBGISL =      0 
   LCGISL =      0 
   NCGISL =      0 
   PCGISL =      0 
   LEGISL =      0 
   NEGISL =      0 
   PEGISL =      0 
   LPGISL =      0 
   NPGISL =      0 
   PPGISL =      0 
   LAGIDL =      0 
   NAGIDL =      0 
   PAGIDL =      0 
   LBGIDL =      0 
   NBGIDL =      0 
   PBGIDL =      0 
   LCGIDL =      0 
   NCGIDL =      0 
   PCGIDL =      0 
   LEGIDL =      0 
   NEGIDL =      0 
   PEGIDL =      0 
   LPGIDL =      0 
   NPGIDL =      0 
   PPGIDL =      0 
   LALPHA0 =      0 
   NALPHA0 =      0 
   PALPHA0 =      0 
   LALPHA1 =      0 
   NALPHA1 =      0 
   PALPHA1 =      0 
   LBETA0 =      0 
   NBETA0 =      0 
   PBETA0 =      0 
   LBETAII0 =      0 
   NBETAII0 =      0 
   PBETAII0 =      0 
   LBETAII1 =      0 
   NBETAII1 =      0 
   PBETAII1 =      0 
   LBETAII2 =      0 
   NBETAII2 =      0 
   PBETAII2 =      0 
   LESATII =      0 
   NESATII =      0 
   PESATII =      0 
   LLII =      0 
   NLII =      0 
   PLII =      0 
   LSII0 =      0 
   NSII0 =      0 
   PSII0 =      0 
   LSII1 =      0 
   NSII1 =      0 
   PSII1 =      0 
   LSII2 =      0 
   NSII2 =      0 
   PSII2 =      0 
   LSIID =      0 
   NSIID =      0 
   PSIID =      0 
   LCFS =      0 
   NCFS =      0 
   PCFS =      0 
   LCFD =      0 
   NCFD =      0 
   PCFD =      0 
   LCOVS =      0 
   NCOVS =      0 
   PCOVS =      0 
   LCOVD =      0 
   NCOVD =      0 
   PCOVD =      0 
   LCGSL =      0 
   NCGSL =      0 
   PCGSL =      0 
   LCGDL =      0 
   NCGDL =      0 
   PCGDL =      0 
   LCKAPPAS =      0 
   NCKAPPAS =      0 
   PCKAPPAS =      0 
   LCKAPPAD =      0 
   NCKAPPAD =      0 
   PCKAPPAD =      0 
   LCGBL =      0 
   NCGBL =      0 
   PCGBL =      0 
   LCKAPPAB =      0 
   NCKAPPAB =      0 
   PCKAPPAB =      0 
   LNTGEN =      0 
   NNTGEN =      0 
   PNTGEN =      0 
   LAIGEN =      0 
   NAIGEN =      0 
   PAIGEN =      0 
   LBIGEN =      0 
   NBIGEN =      0 
   PBIGEN =      0 
   LXRCRG1 =      0 
   NXRCRG1 =      0 
   PXRCRG1 =      0 
   LXRCRG2 =      0 
   NXRCRG2 =      0 
   PXRCRG2 =      0 
   LINTNOI =      0 
   LUTE =      0 
   NUTE =      0 
   PUTE =      0 
   LUTL =      0 
   NUTL =      0 
   PUTL =      0 
   LEMOBT =      0 
   NEMOBT =      0 
   PEMOBT =      0 
   LUA1 =      0 
   NUA1 =      0 
   PUA1 =      0 
   LUC1 =      0 
   NUC1 =      0 
   PUC1 =      0 
   LUD1 =      0 
   NUD1 =      0 
   PUD1 =      0 
   LUCSTE =      0 
   NUCSTE =      0 
   PUCSTE =      0 
   LPTWGT =      0 
   NPTWGT =      0 
   PPTWGT =      0 
   LAT =      0 
   NAT =      0 
   PAT =      0 
   LSTTHETASAT =      0 
   NSTTHETASAT =      0 
   PSTTHETASAT =      0 
   LPRT =      0 
   NPRT =      0 
   PPRT =      0 
   LKT1 =      0 
   NKT1 =      0 
   PKT1 =      0 
   LTSS =      0 
   NTSS =      0 
   PTSS =      0 
   LIIT =      0 
   NIIT =      0 
   PIIT =      0 
   LTII =      0 
   NTII =      0 
   PTII =      0 
   LTGIDL =      0 
   NTGIDL =      0 
   PTGIDL =      0 
   LIGT =      0 
   NIGT =      0 
   PIGT =      0 
   Imin =  1e-15 
   K01 =      0 
   K0SI1 =      0 
   K1SI =      1 
   K1SI1 =      0 
   K11 =      0 
   K1SAT1 =      0 
   DELTAVSATCV =   0.22 
   PSATCV =      2 
   APSATCV =      0 
   BPSATCV =      1 
   A11 =      0 
   A21 =      0 
   AIGBINV1 =      0 
   AIGBACC1 =      0 
   AIGC1 =      0 
   AIGS1 =      0 
   AIGD1 =      0 
   TOXG = 2.1e-09 
   ALPHA01 =      0 
   ALPHA11 =      0 
   ALPHAII0 =      0 
   ALPHAII01 =      0 
   ALPHAII1 =      0 
   ALPHAII11 =      0 
   LK01 =      0 
   NK01 =      0 
   PK01 =      0 
   LK0SI1 =      0 
   NK0SI1 =      0 
   PK0SI1 =      0 
   LK1SI =      0 
   NK1SI =      0 
   PK1SI =      0 
   LK1SI1 =      0 
   NK1SI1 =      0 
   PK1SI1 =      0 
   LK11 =      0 
   NK11 =      0 
   PK11 =      0 
   LK1SAT1 =      0 
   NK1SAT1 =      0 
   PK1SAT1 =      0 
   LPSATCV =      0 
   NPSATCV =      0 
   PPSATCV =      0 
   LDELTAVSATCV =      0 
   NDELTAVSATCV =      0 
   PDELTAVSATCV =      0 
   LA11 =      0 
   NA11 =      0 
   PA11 =      0 
   LA21 =      0 
   NA21 =      0 
   PA21 =      0 
   LAIGBINV1 =      0 
   NAIGBINV1 =      0 
   PAIGBINV1 =      0 
   LAIGBACC1 =      0 
   NAIGBACC1 =      0 
   PAIGBACC1 =      0 
   LAIGC1 =      0 
   NAIGC1 =      0 
   PAIGC1 =      0 
   LAIGS1 =      0 
   NAIGS1 =      0 
   PAIGS1 =      0 
   LAIGD1 =      0 
   NAIGD1 =      0 
   PAIGD1 =      0 
   LALPHAII0 =      0 
   NALPHAII0 =      0 
   PALPHAII0 =      0 
   LALPHAII1 =      0 
   NALPHAII1 =      0 
   PALPHAII1 =      0 
   CGEO1SW = 0 
   NBODYN1 =      0 
   NBODYN2 =  1e+05 
   PHIGL =      0 
   PHIGN1 =      0 
   PHIGN2 =  1e+05 
   CDSCN1 =      0 
   CDSCN2 =  1e+05 
   CDSCDN1 =      0 
   CDSCDN2 =  1e+05 
   CDSCDRN1 =      0 
   CDSCDRN2 =  1e+05 
   DVT1SS =    0.4 
   ETA0N1 =      0 
   ETA0N2 =  1e+05 
   TETA0 =      0 
   TETA0R =      0 
   DVTP0 =      0 
   DVTP1 =      0 
   VSATN1 =      0 
   VSATN2 =  1e+05 
   VSAT1N1 =      0 
   VSAT1N2 =  1e+05 
   VSAT1RN1 =      0 
   VSAT1RN2 =  1e+05 
   MEXPR =  2.491 
   AMEXPR =      0 
   BMEXPR =      1 
   TMEXPR =      0 
   U0N1 =      0 
   U0N2 =  1e+05 
   CHARGEWF =      0 
   LDVT1SS =      0 
   NDVT1SS =      0 
   PDVT1SS =      0 
   LMEXPR =      0 
   NMEXPR =      0 
   PMEXPR =      0 
   Lmin =      0 m
   Lmax =      1 m
   NFINmin =      0 
   NFINmax =      1 
  **info** (Dice.txt:33) DC voltage reset to initial transient source value              in source        0:vbit                new dc=  0.7000D+00
  
      
 **info** set option symb=1 internally to help for convergence.
 *****************************************************************
 ******  option summary
 ******
 runlvl  = 3         bypass  = 2         
  Opening plot unit= 15
 file=Dice.pa0

1****** HSPICE -- H-2013.03-SP1 32-BIT (May 29 2013) RHEL32 ******              
 ******  
 'dice 0.5ghz'

  ******  operating point information tnom=  25.000 temp=  25.000 *****
 ***** operating point status is voltage   simulation time is     0.     
    node    =voltage      node    =voltage      node    =voltage

 +0:bit     = 700.0000m 0:bl      = 642.7973m 0:blb     = 539.1205m
 +0:pre     =   0.      0:vdd     = 700.0000m 0:we      = 700.0000m
 +0:wl      =   0.      0:x0      = 700.0000m 0:x1      = 357.2361f
 +0:x2      = 700.0000m 0:x3      = 357.2361f 2:bitb    = 115.7983n
 +2:web     = 116.0307n 2:xe1     = 672.1164m 2:xe2     = 208.5681m

 ******  
 'dice 0.5ghz'

  ******  transient analysis tnom=  25.000 temp=  25.000 *****
x

        time    voltage      voltage      voltage      voltage    
                    x0           x1           x2           x3     
    0.          700.0000m      0.         700.0000m      0.       
   10.00000p    699.9998m      0.         699.9998m      0.       
   20.00000p    699.9998m      0.         699.9998m      0.       
   30.00000p    699.9998m      0.         699.9998m      0.       
   40.00000p    699.9998m      0.         699.9998m      0.       
   50.00000p    699.9998m      0.         699.9998m      0.       
   60.00000p    699.9998m      0.         699.9998m      0.       
   70.00000p    699.9998m      0.         699.9998m      0.       
   80.00000p    699.9998m      0.         699.9998m      0.       
   90.00000p    699.9998m      0.         699.9998m      0.       
  100.00000p    699.9998m      0.         699.9998m      0.       
  110.00000p    699.9998m      0.         699.9998m      0.       
  120.00000p    699.9998m      0.         699.9998m      0.       
  130.00000p    699.9998m      0.         699.9998m      0.       
  140.00000p    699.9998m      0.         699.9998m      0.       
  150.00000p    699.9998m      0.         699.9998m      0.       
  160.00000p    699.9998m      0.         699.9998m      0.       
  170.00000p    699.9998m      0.         699.9998m      0.       
  180.00000p    699.9998m      0.         699.9998m      0.       
  190.00000p    699.9998m      0.         699.9998m      0.       
  200.00000p    699.9998m      0.         699.9998m      0.       
  210.00000p    699.9998m      0.         699.9998m      0.       
  220.00000p    699.9998m      0.         699.9998m      0.       
  230.00000p    699.9998m      0.         699.9998m      0.       
  240.00000p    699.9998m      0.         699.9998m      0.       
  250.00000p    699.9998m      0.         699.9998m      0.       
  260.00000p    699.9998m      0.         699.9998m      0.       
  270.00000p    699.9998m      0.         699.9998m      0.       
  280.00000p    699.9998m      0.         699.9998m      0.       
  290.00000p    699.9998m      0.         699.9998m      0.       
  300.00000p    699.9998m      0.         699.9998m      0.       
  310.00000p    699.9998m      0.         699.9998m      0.       
  320.00000p    699.9998m      0.         699.9998m      0.       
  330.00000p    699.9998m      0.         699.9998m      0.       
  340.00000p    699.9998m      0.         699.9998m      0.       
  350.00000p    699.9998m      0.         699.9998m      0.       
  360.00000p    699.9998m      0.         699.9998m      0.       
  370.00000p    699.9998m      0.         699.9998m      0.       
  380.00000p    699.9998m      0.         699.9998m      0.       
  390.00000p    699.9998m      0.         699.9998m      0.       
  400.00000p    699.9998m      0.         699.9998m      0.       
  410.00000p    699.9998m      0.         699.9998m      0.       
  420.00000p    699.9998m      0.         699.9998m      0.       
  430.00000p    699.9998m      0.         699.9998m      0.       
  440.00000p    699.9998m      0.         699.9998m      0.       
  450.00000p    699.9998m      0.         699.9998m      0.       
  460.00000p    699.9998m      0.         699.9998m      0.       
  470.00000p    699.9998m      0.         699.9998m      0.       
  480.00000p    699.9998m      0.         699.9998m      0.       
  490.00000p    699.9998m      0.         699.9998m      0.       
  500.00000p    699.9998m      0.         699.9998m      0.       
  510.00000p    699.9998m      0.         699.9998m      0.       
  520.00000p    699.9998m      0.         699.9998m      0.       
  530.00000p    699.9998m      0.         699.9998m      0.       
  540.00000p    699.9998m      0.         699.9998m      0.       
  550.00000p    699.9998m      0.         699.9998m      0.       
  560.00000p    699.9998m      0.         699.9998m      0.       
  570.00000p    699.9998m      0.         699.9998m      0.       
  580.00000p    699.9998m      0.         699.9998m      0.       
  590.00000p    699.9998m      0.         699.9998m      0.       
  600.00000p    699.9998m      0.         699.9998m      0.       
  610.00000p    699.9998m      0.         699.9998m      0.       
  620.00000p    699.9998m      0.         699.9998m      0.       
  630.00000p    699.9998m      0.         699.9998m      0.       
  640.00000p    699.9998m      0.         699.9998m      0.       
  650.00000p    699.9998m      0.         699.9998m      0.       
  660.00000p    699.9998m      0.         699.9998m      0.       
  670.00000p    699.9998m      0.         699.9998m      0.       
  680.00000p    699.9998m      0.         699.9998m      0.       
  690.00000p    699.9998m      0.         699.9998m      0.       
  700.00000p    699.9998m      0.         699.9998m      0.       
  710.00000p    699.9998m      0.         699.9998m      0.       
  720.00000p    699.9998m      0.         699.9998m      0.       
  730.00000p    699.9998m      0.         699.9998m      0.       
  740.00000p    699.9998m      0.         699.9998m      0.       
  750.00000p    699.9998m      0.         699.9998m      0.       
  760.00000p    699.9998m      0.         699.9998m      0.       
  770.00000p    699.9998m      0.         699.9998m      0.       
  780.00000p    699.9998m      0.         699.9998m      0.       
  790.00000p    699.9998m      0.         699.9998m      0.       
  800.00000p    699.9998m      0.         699.9998m      0.       
  810.00000p    699.9998m      0.         699.9998m      0.       
  820.00000p    699.9998m      0.         699.9998m      0.       
  830.00000p    699.9998m      0.         699.9998m      0.       
  840.00000p    699.9998m      0.         699.9998m      0.       
  850.00000p    699.9998m      0.         699.9998m      0.       
  860.00000p    702.6986m      2.1925m    702.6986m      2.1925m  
  870.00000p    661.4116m     43.9397m    661.4116m     43.9397m  
  880.00000p    153.8995m    404.9914m    153.8995m    404.9914m  
  890.00000p     42.2010m    699.3612m     42.2010m    699.3612m  
  900.00000p     37.5093m    699.6495m     37.5093m    699.6495m  
  910.00000p     33.3786m    699.7043m     33.3786m    699.7043m  
  920.00000p     29.6251m    699.7217m     29.6251m    699.7217m  
  930.00000p     26.4125m    699.7437m     26.4125m    699.7437m  
  940.00000p     23.8697m    699.7715m     23.8697m    699.7715m  
  950.00000p     21.3269m    699.7993m     21.3269m    699.7993m  
  960.00000p     18.7842m    699.8271m     18.7842m    699.8271m  
  970.00000p     16.2414m    699.8549m     16.2414m    699.8549m  
  980.00000p     13.7635m    699.8819m     13.7635m    699.8819m  
  990.00000p     12.7016m    699.8895m     12.7016m    699.8895m  
    1.00000n     11.6397m    699.8970m     11.6397m    699.8970m  
    1.01000n     10.5779m    699.9046m     10.5779m    699.9046m  
    1.02000n      9.5160m    699.9122m      9.5160m    699.9122m  
    1.03000n      8.4542m    699.9198m      8.4542m    699.9198m  
    1.04000n      7.3923m    699.9274m      7.3923m    699.9274m  
    1.05000n      6.3304m    699.9350m      6.3304m    699.9350m  
    1.06000n      5.2686m    699.9426m      5.2686m    699.9426m  
    1.07000n      4.2067m    699.9502m      4.2067m    699.9502m  
    1.08000n      3.1449m    699.9578m      3.1449m    699.9578m  
    1.09000n      2.7227m    699.9646m      2.7227m    699.9646m  
    1.10000n      2.4545m    699.9713m      2.4545m    699.9713m  
    1.11000n      2.1863m    699.9779m      2.1863m    699.9779m  
    1.12000n      1.9181m    699.9845m      1.9181m    699.9845m  
    1.13000n      1.6499m    699.9912m      1.6499m    699.9912m  
    1.14000n      1.3816m    699.9978m      1.3816m    699.9978m  
    1.15000n     -3.2264m    696.6947m     -3.2264m    696.6947m  
    1.16000n     -1.9510m    697.0662m     -1.9510m    697.0662m  
    1.17000n     19.0938u    700.0053m     19.0938u    700.0053m  
    1.18000n    -13.9987u    699.9849m    -13.9987u    699.9849m  
    1.19000n      9.1457u    700.0087m      9.1457u    700.0087m  
    1.20000n     14.8360u    700.0147m     14.8360u    700.0147m  
    1.21000n      5.4084u    700.0052m      5.4084u    700.0052m  
    1.22000n     -4.0193u    699.9957m     -4.0193u    699.9957m  
    1.23000n    -13.4469u    699.9862m    -13.4469u    699.9862m  
    1.24000n    -17.7619u    699.9819m    -17.7619u    699.9819m  
    1.25000n    -14.2895u    699.9853m    -14.2895u    699.9853m  
    1.26000n    -10.8171u    699.9888m    -10.8171u    699.9888m  
    1.27000n     -7.3447u    699.9923m     -7.3447u    699.9923m  
    1.28000n     -3.8723u    699.9958m     -3.8723u    699.9958m  
    1.29000n      0.         699.9992m      0.         699.9992m  
    1.30000n      3.0725u    700.0027m      3.0725u    700.0027m  
    1.31000n      6.5449u    700.0062m      6.5449u    700.0062m  
    1.32000n     10.0173u    700.0096m     10.0173u    700.0096m  
    1.33000n     13.4897u    700.0131m     13.4897u    700.0131m  
    1.34000n     16.9622u    700.0166m     16.9622u    700.0166m  
    1.35000n     18.5973u    700.0182m     18.5973u    700.0182m  
    1.36000n     17.0736u    700.0167m     17.0736u    700.0167m  
    1.37000n     15.5498u    700.0152m     15.5498u    700.0152m  
    1.38000n     14.0261u    700.0137m     14.0261u    700.0137m  
    1.39000n     12.5023u    700.0121m     12.5023u    700.0121m  
    1.40000n     10.9786u    700.0106m     10.9786u    700.0106m  
    1.41000n      9.4549u    700.0091m      9.4549u    700.0091m  
    1.42000n      7.9311u    700.0076m      7.9311u    700.0076m  
    1.43000n      6.4074u    700.0061m      6.4074u    700.0061m  
    1.44000n      4.8836u    700.0046m      4.8836u    700.0046m  
    1.45000n      3.3599u    700.0030m      3.3599u    700.0030m  
    1.46000n      1.8361u    700.0015m      1.8361u    700.0015m  
    1.47000n      0.         700.0000m      0.         700.0000m  
    1.48000n     -1.2114u    699.9985m     -1.2114u    699.9985m  
    1.49000n     -2.7351u    699.9970m     -2.7351u    699.9970m  
    1.50000n     -4.2588u    699.9954m     -4.2588u    699.9954m  
    1.51000n     -5.7826u    699.9939m     -5.7826u    699.9939m  
    1.52000n     -7.3063u    699.9924m     -7.3063u    699.9924m  
    1.53000n     -8.8301u    699.9909m     -8.8301u    699.9909m  
    1.54000n    -10.3538u    699.9894m    -10.3538u    699.9894m  
    1.55000n    -11.8776u    699.9878m    -11.8776u    699.9878m  
    1.56000n    -13.4013u    699.9863m    -13.4013u    699.9863m  
    1.57000n    -14.9250u    699.9848m    -14.9250u    699.9848m  
    1.58000n    -16.4488u    699.9833m    -16.4488u    699.9833m  
    1.59000n    -17.9725u    699.9818m    -17.9725u    699.9818m  
    1.60000n    -17.4931u    699.9822m    -17.4931u    699.9822m  
    1.61000n    -14.3107u    699.9854m    -14.3107u    699.9854m  
    1.62000n    -11.1283u    699.9886m    -11.1283u    699.9886m  
    1.63000n     -7.9460u    699.9917m     -7.9460u    699.9917m  
    1.64000n     -4.7636u    699.9949m     -4.7636u    699.9949m  
    1.65000n     -1.5812u    699.9981m     -1.5812u    699.9981m  
    1.66000n      1.6012u    700.0012m      1.6012u    700.0012m  
    1.67000n      4.7836u    700.0044m      4.7836u    700.0044m  
    1.68000n      7.9660u    700.0076m      7.9660u    700.0076m  
    1.69000n     11.1484u    700.0107m     11.1484u    700.0107m  
    1.70000n     14.3308u    700.0139m     14.3308u    700.0139m  
    1.71000n     17.5132u    700.0171m     17.5132u    700.0171m  
    1.72000n     -1.1600u    699.9986m     -1.1600u    699.9986m  
    1.73000n    763.2580n    700.0003m    763.2580n    700.0003m  
    1.74000n      0.         699.9998m      0.         699.9998m  
    1.75000n      0.         699.9998m      0.         699.9998m  
    1.76000n      0.         699.9998m      0.         699.9998m  
    1.77000n      0.         699.9998m      0.         699.9998m  
    1.78000n      0.         699.9998m      0.         699.9998m  
    1.79000n      0.         699.9998m      0.         699.9998m  
    1.80000n      0.         699.9998m      0.         699.9998m  
    1.81000n      0.         699.9998m      0.         699.9998m  
    1.82000n      0.         699.9998m      0.         699.9998m  
    1.83000n      0.         699.9998m      0.         699.9998m  
    1.84000n      0.         699.9998m      0.         699.9998m  
    1.85000n      0.         699.9998m      0.         699.9998m  
    1.86000n      0.         699.9998m      0.         699.9998m  
    1.87000n      0.         699.9998m      0.         699.9998m  
    1.88000n      0.         699.9998m      0.         699.9998m  
    1.89000n      0.         699.9998m      0.         699.9998m  
    1.90000n      0.         699.9998m      0.         699.9998m  
    1.91000n      0.         699.9998m      0.         699.9998m  
    1.92000n      0.         699.9998m      0.         699.9998m  
    1.93000n      0.         699.9998m      0.         699.9998m  
    1.94000n      0.         699.9998m      0.         699.9998m  
    1.95000n      0.         699.9998m      0.         699.9998m  
    1.96000n      0.         699.9998m      0.         699.9998m  
    1.97000n      0.         699.9998m      0.         699.9998m  
    1.98000n      0.         699.9998m      0.         699.9998m  
    1.99000n      0.         699.9998m      0.         699.9998m  
    2.00000n      0.         699.9998m      0.         699.9998m  
    2.01000n      0.         699.9998m      0.         699.9998m  
    2.02000n      0.         699.9998m      0.         699.9998m  
    2.03000n      0.         699.9998m      0.         699.9998m  
    2.04000n      0.         699.9998m      0.         699.9998m  
    2.05000n      0.         699.9998m      0.         699.9998m  
    2.06000n      0.         699.9998m      0.         699.9998m  
    2.07000n      0.         699.9998m      0.         699.9998m  
    2.08000n      0.         699.9998m      0.         699.9998m  
    2.09000n      0.         699.9998m      0.         699.9998m  
    2.10000n      0.         699.9998m      0.         699.9998m  
    2.11000n      0.         699.9998m      0.         699.9998m  
    2.12000n      0.         699.9998m      0.         699.9998m  
    2.13000n      0.         699.9998m      0.         699.9998m  
    2.14000n      0.         699.9998m      0.         699.9998m  
    2.15000n      0.         699.9998m      0.         699.9998m  
    2.16000n      0.         699.9998m      0.         699.9998m  
    2.17000n      0.         699.9998m      0.         699.9998m  
    2.18000n      0.         699.9998m      0.         699.9998m  
    2.19000n      0.         699.9998m      0.         699.9998m  
    2.20000n      0.         699.9998m      0.         699.9998m  
    2.21000n      0.         699.9998m      0.         699.9998m  
    2.22000n      0.         699.9998m      0.         699.9998m  
    2.23000n      0.         699.9998m      0.         699.9998m  
    2.24000n      0.         699.9998m      0.         699.9998m  
    2.25000n      0.         699.9998m      0.         699.9998m  
    2.26000n      0.         699.9998m      0.         699.9998m  
    2.27000n      0.         699.9998m      0.         699.9998m  
    2.28000n      0.         699.9998m      0.         699.9998m  
    2.29000n      0.         699.9998m      0.         699.9998m  
    2.30000n      0.         699.9998m      0.         699.9998m  
    2.31000n      0.         699.9998m      0.         699.9998m  
    2.32000n      0.         699.9998m      0.         699.9998m  
    2.33000n      0.         699.9998m      0.         699.9998m  
    2.34000n      0.         699.9998m      0.         699.9998m  
    2.35000n      0.         699.9998m      0.         699.9998m  
    2.36000n      0.         699.9998m      0.         699.9998m  
    2.37000n      0.         699.9998m      0.         699.9998m  
    2.38000n      0.         699.9998m      0.         699.9998m  
    2.39000n      0.         699.9998m      0.         699.9998m  
    2.40000n      0.         699.9998m      0.         699.9998m  
    2.41000n      0.         699.9998m      0.         699.9998m  
    2.42000n      0.         699.9998m      0.         699.9998m  
    2.43000n      0.         699.9998m      0.         699.9998m  
    2.44000n      0.         699.9998m      0.         699.9998m  
    2.45000n      0.         699.9998m      0.         699.9998m  
    2.46000n      0.         699.9998m      0.         699.9998m  
    2.47000n      0.         699.9998m      0.         699.9998m  
    2.48000n      0.         699.9998m      0.         699.9998m  
    2.49000n      0.         699.9998m      0.         699.9998m  
    2.50000n      0.         699.9998m      0.         699.9998m  
    2.51000n      0.         699.9998m      0.         699.9998m  
    2.52000n      0.         699.9998m      0.         699.9998m  
    2.53000n      0.         699.9998m      0.         699.9998m  
    2.54000n      0.         699.9998m      0.         699.9998m  
    2.55000n      0.         699.9998m      0.         699.9998m  
    2.56000n      0.         699.9998m      0.         699.9998m  
    2.57000n      0.         699.9998m      0.         699.9998m  
    2.58000n      0.         699.9998m      0.         699.9998m  
    2.59000n      0.         699.9998m      0.         699.9998m  
    2.60000n      0.         699.9998m      0.         699.9998m  
    2.61000n      0.         699.9998m      0.         699.9998m  
    2.62000n      0.         699.9998m      0.         699.9998m  
    2.63000n      0.         699.9998m      0.         699.9998m  
    2.64000n      0.         699.9998m      0.         699.9998m  
    2.65000n      0.         699.9998m      0.         699.9998m  
    2.66000n      0.         699.9998m      0.         699.9998m  
    2.67000n      0.         699.9998m      0.         699.9998m  
    2.68000n      0.         699.9998m      0.         699.9998m  
    2.69000n      0.         699.9998m      0.         699.9998m  
    2.70000n      0.         699.9998m      0.         699.9998m  
    2.71000n      0.         699.9998m      0.         699.9998m  
    2.72000n      0.         699.9998m      0.         699.9998m  
    2.73000n      0.         699.9998m      0.         699.9998m  
    2.74000n      0.         699.9998m      0.         699.9998m  
    2.75000n      0.         699.9998m      0.         699.9998m  
    2.76000n      0.         699.9998m      0.         699.9998m  
    2.77000n      0.         699.9998m      0.         699.9998m  
    2.78000n      0.         699.9998m      0.         699.9998m  
    2.79000n      0.         699.9998m      0.         699.9998m  
    2.80000n      0.         699.9998m      0.         699.9998m  
    2.81000n      0.         699.9998m      0.         699.9998m  
    2.82000n      0.         699.9998m      0.         699.9998m  
    2.83000n      0.         699.9998m      0.         699.9998m  
    2.84000n      0.         699.9998m      0.         699.9998m  
    2.85000n      0.         699.9998m      0.         699.9998m  
    2.86000n      2.0673m    702.5586m      2.0673m    702.5586m  
    2.87000n     40.4013m    708.9356m     40.4013m    708.9356m  
    2.88000n    142.5299m    704.0249m    142.5299m    704.0249m  
    2.89000n    144.3169m    699.8160m    144.3169m    699.8160m  
    2.90000n    143.7276m    699.9115m    143.7276m    699.9115m  
    2.91000n    143.1626m    699.9136m    143.1626m    699.9136m  
    2.92000n    142.5190m    699.9100m    142.5190m    699.9100m  
    2.93000n    141.8400m    699.9040m    141.8400m    699.9040m  
    2.94000n    141.1610m    699.8979m    141.1610m    699.8979m  
    2.95000n    139.8341m    699.8875m    139.8341m    699.8875m  
    2.96000n    138.2520m    699.8755m    138.2520m    699.8755m  
    2.97000n    136.6699m    699.8634m    136.6699m    699.8634m  
    2.98000n    135.0879m    699.8513m    135.0879m    699.8513m  
    2.99000n    133.5058m    699.8393m    133.5058m    699.8393m  
    3.00000n    131.9237m    699.8272m    131.9237m    699.8272m  
    3.01000n    130.3417m    699.8151m    130.3417m    699.8151m  
    3.02000n    128.7596m    699.8031m    128.7596m    699.8031m  
    3.03000n    127.1776m    699.7910m    127.1776m    699.7910m  
    3.04000n    124.9916m    699.7754m    124.9916m    699.7754m  
    3.05000n    120.4971m    699.7465m    120.4971m    699.7465m  
    3.06000n    116.0027m    699.7175m    116.0027m    699.7175m  
    3.07000n    111.5083m    699.6885m    111.5083m    699.6885m  
    3.08000n    107.0138m    699.6596m    107.0138m    699.6596m  
    3.09000n    102.5194m    699.6306m    102.5194m    699.6306m  
    3.10000n     98.0250m    699.6016m     98.0250m    699.6016m  
    3.11000n     93.5305m    699.5726m     93.5305m    699.5726m  
    3.12000n     89.0361m    699.5437m     89.0361m    699.5437m  
    3.13000n     84.5416m    699.5147m     84.5416m    699.5147m  
    3.14000n     80.0472m    699.4857m     80.0472m    699.4857m  
    3.15000n     39.1567m    692.0663m     39.1567m    692.0663m  
    3.16000n     -1.3088m    695.5151m     -1.3088m    695.5151m  
    3.17000n     -2.3894u    700.0030m     -2.3894u    700.0030m  
    3.18000n      0.         699.9996m      0.         699.9996m  
    3.19000n      0.         699.9995m      0.         699.9995m  
    3.20000n      0.         699.9998m      0.         699.9998m  
    3.21000n    740.7157n    700.0001m    740.7157n    700.0001m  
    3.22000n    860.4425n    700.0001m    860.4425n    700.0001m  
    3.23000n    702.8366n    700.0000m    702.8366n    700.0000m  
    3.24000n    545.2307n    699.9999m    545.2307n    699.9999m  
    3.25000n      0.         699.9999m      0.         699.9999m  
    3.26000n      0.         699.9998m      0.         699.9998m  
    3.27000n      0.         699.9997m      0.         699.9997m  
    3.28000n      0.         699.9996m      0.         699.9996m  
    3.29000n      0.         699.9995m      0.         699.9995m  
    3.30000n      0.         699.9994m      0.         699.9994m  
    3.31000n   -558.0109n    699.9993m   -558.0109n    699.9993m  
    3.32000n   -516.4529n    699.9993m   -516.4529n    699.9993m  
    3.33000n      0.         699.9993m      0.         699.9993m  
    3.34000n      0.         699.9994m      0.         699.9994m  
    3.35000n      0.         699.9994m      0.         699.9994m  
    3.36000n      0.         699.9994m      0.         699.9994m  
    3.37000n      0.         699.9995m      0.         699.9995m  
    3.38000n      0.         699.9995m      0.         699.9995m  
    3.39000n      0.         699.9995m      0.         699.9995m  
    3.40000n      0.         699.9996m      0.         699.9996m  
    3.41000n      0.         699.9996m      0.         699.9996m  
    3.42000n      0.         699.9996m      0.         699.9996m  
    3.43000n      0.         699.9996m      0.         699.9996m  
    3.44000n      0.         699.9997m      0.         699.9997m  
    3.45000n      0.         699.9997m      0.         699.9997m  
    3.46000n      0.         699.9997m      0.         699.9997m  
    3.47000n      0.         699.9998m      0.         699.9998m  
    3.48000n      0.         699.9998m      0.         699.9998m  
    3.49000n      0.         699.9998m      0.         699.9998m  
    3.50000n      0.         699.9998m      0.         699.9998m  
    3.51000n      0.         699.9999m      0.         699.9999m  
    3.52000n      0.         699.9999m      0.         699.9999m  
    3.53000n    503.8143n    699.9999m    503.8143n    699.9999m  
    3.54000n    552.3984n    700.0000m    552.3984n    700.0000m  
    3.55000n    600.9826n    700.0000m    600.9826n    700.0000m  
    3.56000n    649.5667n    700.0000m    649.5667n    700.0000m  
    3.57000n    698.1509n    700.0000m    698.1509n    700.0000m  
    3.58000n    746.7350n    700.0001m    746.7350n    700.0001m  
    3.59000n    795.3192n    700.0001m    795.3192n    700.0001m  
    3.60000n    843.9033n    700.0001m    843.9033n    700.0001m  
    3.61000n    892.4875n    700.0002m    892.4875n    700.0002m  
    3.62000n    910.2988n    700.0002m    910.2988n    700.0002m  
    3.63000n    756.1121n    700.0001m    756.1121n    700.0001m  
    3.64000n    601.9255n    700.0000m    601.9255n    700.0000m  
    3.65000n      0.         699.9999m      0.         699.9999m  
    3.66000n      0.         699.9998m      0.         699.9998m  
    3.67000n      0.         699.9997m      0.         699.9997m  
    3.68000n      0.         699.9996m      0.         699.9996m  
    3.69000n      0.         699.9995m      0.         699.9995m  
    3.70000n      0.         699.9994m      0.         699.9994m  
    3.71000n      0.         699.9993m      0.         699.9993m  
    3.72000n      0.         699.9998m      0.         699.9998m  
    3.73000n      0.         699.9998m      0.         699.9998m  
    3.74000n      0.         699.9998m      0.         699.9998m  
    3.75000n      0.         699.9998m      0.         699.9998m  
    3.76000n      0.         699.9998m      0.         699.9998m  
    3.77000n      0.         699.9998m      0.         699.9998m  
    3.78000n      0.         699.9998m      0.         699.9998m  
    3.79000n      0.         699.9998m      0.         699.9998m  
    3.80000n      0.         699.9998m      0.         699.9998m  
    3.81000n      0.         699.9998m      0.         699.9998m  
    3.82000n      0.         699.9998m      0.         699.9998m  
    3.83000n      0.         699.9998m      0.         699.9998m  
    3.84000n      0.         699.9998m      0.         699.9998m  
    3.85000n      0.         699.9998m      0.         699.9998m  
    3.86000n      0.         699.9998m      0.         699.9998m  
    3.87000n      0.         699.9998m      0.         699.9998m  
    3.88000n      0.         699.9998m      0.         699.9998m  
    3.89000n      0.         699.9998m      0.         699.9998m  
    3.90000n      0.         699.9998m      0.         699.9998m  
    3.91000n      0.         699.9998m      0.         699.9998m  
    3.92000n      0.         699.9998m      0.         699.9998m  
    3.93000n      0.         699.9998m      0.         699.9998m  
    3.94000n      0.         699.9998m      0.         699.9998m  
    3.95000n      0.         699.9998m      0.         699.9998m  
    3.96000n      0.         699.9998m      0.         699.9998m  
    3.97000n      0.         699.9998m      0.         699.9998m  
    3.98000n      0.         699.9998m      0.         699.9998m  
    3.99000n      0.         699.9998m      0.         699.9998m  
    4.00000n      0.         699.9998m      0.         699.9998m  
    4.01000n      0.         699.9998m      0.         699.9998m  
    4.02000n      0.         699.9998m      0.         699.9998m  
    4.03000n      0.         699.9998m      0.         699.9998m  
    4.04000n      0.         699.9998m      0.         699.9998m  
    4.05000n      0.         699.9998m      0.         699.9998m  
    4.06000n      0.         699.9998m      0.         699.9998m  
    4.07000n      0.         699.9998m      0.         699.9998m  
    4.08000n      0.         699.9998m      0.         699.9998m  
    4.09000n      0.         699.9998m      0.         699.9998m  
    4.10000n      0.         699.9998m      0.         699.9998m  
    4.11000n      0.         699.9998m      0.         699.9998m  
    4.12000n      0.         699.9998m      0.         699.9998m  
    4.13000n      0.         699.9998m      0.         699.9998m  
    4.14000n      0.         699.9998m      0.         699.9998m  
    4.15000n      0.         699.9998m      0.         699.9998m  
    4.16000n      0.         699.9998m      0.         699.9998m  
    4.17000n      0.         699.9998m      0.         699.9998m  
    4.18000n      0.         699.9998m      0.         699.9998m  
    4.19000n      0.         699.9998m      0.         699.9998m  
    4.20000n      0.         699.9998m      0.         699.9998m  
    4.21000n      0.         699.9998m      0.         699.9998m  
    4.22000n      0.         699.9998m      0.         699.9998m  
    4.23000n      0.         699.9998m      0.         699.9998m  
    4.24000n      0.         699.9998m      0.         699.9998m  
    4.25000n      0.         699.9998m      0.         699.9998m  
    4.26000n      0.         699.9998m      0.         699.9998m  
    4.27000n      0.         699.9998m      0.         699.9998m  
    4.28000n      0.         699.9998m      0.         699.9998m  
    4.29000n      0.         699.9998m      0.         699.9998m  
    4.30000n      0.         699.9998m      0.         699.9998m  
    4.31000n      0.         699.9998m      0.         699.9998m  
    4.32000n      0.         699.9998m      0.         699.9998m  
    4.33000n      0.         699.9998m      0.         699.9998m  
    4.34000n      0.         699.9998m      0.         699.9998m  
    4.35000n      0.         699.9998m      0.         699.9998m  
    4.36000n      0.         699.9998m      0.         699.9998m  
    4.37000n      0.         699.9998m      0.         699.9998m  
    4.38000n      0.         699.9998m      0.         699.9998m  
    4.39000n      0.         699.9998m      0.         699.9998m  
    4.40000n      0.         699.9998m      0.         699.9998m  
    4.41000n      0.         699.9998m      0.         699.9998m  
    4.42000n      0.         699.9998m      0.         699.9998m  
    4.43000n      0.         699.9998m      0.         699.9998m  
    4.44000n      0.         699.9998m      0.         699.9998m  
    4.45000n      0.         699.9998m      0.         699.9998m  
    4.46000n      0.         699.9998m      0.         699.9998m  
    4.47000n      0.         699.9998m      0.         699.9998m  
    4.48000n      0.         699.9998m      0.         699.9998m  
    4.49000n      0.         699.9998m      0.         699.9998m  
    4.50000n      0.         699.9998m      0.         699.9998m  
    4.51000n      0.         699.9998m      0.         699.9998m  
    4.52000n      0.         699.9998m      0.         699.9998m  
    4.53000n      0.         699.9998m      0.         699.9998m  
    4.54000n      0.         699.9998m      0.         699.9998m  
    4.55000n      0.         699.9998m      0.         699.9998m  
    4.56000n      0.         699.9998m      0.         699.9998m  
    4.57000n      0.         699.9998m      0.         699.9998m  
    4.58000n      0.         699.9998m      0.         699.9998m  
    4.59000n      0.         699.9998m      0.         699.9998m  
    4.60000n      0.         699.9998m      0.         699.9998m  
    4.61000n      0.         699.9998m      0.         699.9998m  
    4.62000n      0.         699.9998m      0.         699.9998m  
    4.63000n      0.         699.9998m      0.         699.9998m  
    4.64000n      0.         699.9998m      0.         699.9998m  
    4.65000n      0.         699.9998m      0.         699.9998m  
    4.66000n      0.         699.9998m      0.         699.9998m  
    4.67000n      0.         699.9998m      0.         699.9998m  
    4.68000n      0.         699.9998m      0.         699.9998m  
    4.69000n      0.         699.9998m      0.         699.9998m  
    4.70000n      0.         699.9998m      0.         699.9998m  
    4.71000n      0.         699.9998m      0.         699.9998m  
    4.72000n      0.         699.9998m      0.         699.9998m  
    4.73000n      0.         699.9998m      0.         699.9998m  
    4.74000n      0.         699.9998m      0.         699.9998m  
    4.75000n      0.         699.9998m      0.         699.9998m  
    4.76000n      0.         699.9998m      0.         699.9998m  
    4.77000n      0.         699.9998m      0.         699.9998m  
    4.78000n      0.         699.9998m      0.         699.9998m  
    4.79000n      0.         699.9998m      0.         699.9998m  
    4.80000n      0.         699.9998m      0.         699.9998m  
    4.81000n      0.         699.9998m      0.         699.9998m  
    4.82000n      0.         699.9998m      0.         699.9998m  
    4.83000n      0.         699.9998m      0.         699.9998m  
    4.84000n      0.         699.9998m      0.         699.9998m  
    4.85000n      0.         699.9998m      0.         699.9998m  
    4.86000n      2.1952m    702.7114m      2.1952m    702.7114m  
    4.87000n     40.4894m    678.7388m     40.4894m    678.7388m  
    4.88000n    373.9693m    180.1767m    373.9693m    180.1767m  
    4.89000n    699.3986m     43.8421m    699.3986m     43.8421m  
    4.90000n    699.6103m     38.8268m    699.6103m     38.8268m  
    4.91000n    699.6967m     34.6289m    699.6967m     34.6289m  
    4.92000n    699.7603m     30.8608m    699.7603m     30.8608m  
    4.93000n    699.7448m     27.4525m    699.7448m     27.4525m  
    4.94000n    699.7293m     24.0442m    699.7293m     24.0442m  
    4.95000n    699.7506m     21.5213m    699.7506m     21.5213m  
    4.96000n    699.7906m     19.4499m    699.7906m     19.4499m  
    4.97000n    699.8307m     17.3786m    699.8307m     17.3786m  
    4.98000n    699.8707m     15.3072m    699.8707m     15.3072m  
    4.99000n    699.9107m     13.2358m    699.9107m     13.2358m  
    5.00000n    699.9507m     11.1645m    699.9507m     11.1645m  
    5.01000n    699.9540m     10.1413m    699.9540m     10.1413m  
    5.02000n    699.9506m      9.3071m    699.9506m      9.3071m  
    5.03000n    699.9472m      8.4730m    699.9472m      8.4730m  
    5.04000n    699.9437m      7.6389m    699.9437m      7.6389m  
    5.05000n    699.9403m      6.8048m    699.9403m      6.8048m  
    5.06000n    699.9369m      5.9707m    699.9369m      5.9707m  
    5.07000n    699.9335m      5.1365m    699.9335m      5.1365m  
    5.08000n    699.9301m      4.3024m    699.9301m      4.3024m  
    5.09000n    699.9267m      3.4683m    699.9267m      3.4683m  
    5.10000n    699.9233m      2.6342m    699.9233m      2.6342m  
    5.11000n    699.9313m      1.9975m    699.9313m      1.9975m  
    5.12000n    699.9657m      1.8139m    699.9657m      1.8139m  
    5.13000n    700.0000m      1.6304m    700.0000m      1.6304m  
    5.14000n    700.0344m      1.4469m    700.0344m      1.4469m  
    5.15000n    697.0437m     -2.7480m    697.0437m     -2.7480m  
    5.16000n    697.2815m     -1.5721m    697.2815m     -1.5721m  
    5.17000n    699.9971m     15.7120u    699.9971m     15.7120u  
    5.18000n    700.0019m      1.8979u    700.0019m      1.8979u  
    5.19000n    700.0093m     13.0585u    700.0093m     13.0585u  
    5.20000n    699.9983m     -1.4023u    699.9983m     -1.4023u  
    5.21000n    699.9874m    -15.8631u    699.9874m    -15.8631u  
    5.22000n    699.9885m    -14.5125u    699.9885m    -14.5125u  
    5.23000n    699.9924m     -9.5818u    699.9924m     -9.5818u  
    5.24000n    699.9962m     -4.6512u    699.9962m     -4.6512u  
    5.25000n    700.0000m      0.         700.0000m      0.       
    5.26000n    700.0038m      5.2102u    700.0038m      5.2102u  
    5.27000n    700.0076m     10.1408u    700.0076m     10.1408u  
    5.28000n    700.0114m     15.0715u    700.0114m     15.0715u  
    5.29000n    700.0135m     17.7256u    700.0135m     17.7256u  
    5.30000n    700.0120m     15.7610u    700.0120m     15.7610u  
    5.31000n    700.0104m     13.7964u    700.0104m     13.7964u  
    5.32000n    700.0089m     11.8318u    700.0089m     11.8318u  
    5.33000n    700.0074m      9.8672u    700.0074m      9.8672u  
    5.34000n    700.0058m      7.9026u    700.0058m      7.9026u  
    5.35000n    700.0043m      5.9380u    700.0043m      5.9380u  
    5.36000n    700.0028m      3.9735u    700.0028m      3.9735u  
    5.37000n    700.0012m      2.0089u    700.0012m      2.0089u  
    5.38000n    699.9997m      0.         699.9997m      0.       
    5.39000n    699.9982m     -1.9203u    699.9982m     -1.9203u  
    5.40000n    699.9966m     -3.8849u    699.9966m     -3.8849u  
    5.41000n    699.9951m     -5.8495u    699.9951m     -5.8495u  
    5.42000n    699.9936m     -7.8141u    699.9936m     -7.8141u  
    5.43000n    699.9920m     -9.7787u    699.9920m     -9.7787u  
    5.44000n    699.9905m    -11.7433u    699.9905m    -11.7433u  
    5.45000n    699.9890m    -13.7078u    699.9890m    -13.7078u  
    5.46000n    699.9874m    -15.6724u    699.9874m    -15.6724u  
    5.47000n    699.9859m    -17.6370u    699.9859m    -17.6370u  
    5.48000n    699.9866m    -16.7684u    699.9866m    -16.7684u  
    5.49000n    699.9877m    -15.2804u    699.9877m    -15.2804u  
    5.50000n    699.9889m    -13.7925u    699.9889m    -13.7925u  
    5.51000n    699.9901m    -12.3045u    699.9901m    -12.3045u  
    5.52000n    699.9912m    -10.8165u    699.9912m    -10.8165u  
    5.53000n    699.9924m     -9.3285u    699.9924m     -9.3285u  
    5.54000n    699.9936m     -7.8405u    699.9936m     -7.8405u  
    5.55000n    699.9947m     -6.3526u    699.9947m     -6.3526u  
    5.56000n    699.9959m     -4.8646u    699.9959m     -4.8646u  
    5.57000n    699.9971m     -3.3766u    699.9971m     -3.3766u  
    5.58000n    699.9982m     -1.8886u    699.9982m     -1.8886u  
    5.59000n    699.9994m      0.         699.9994m      0.       
    5.60000n    700.0006m      1.0873u    700.0006m      1.0873u  
    5.61000n    700.0017m      2.5753u    700.0017m      2.5753u  
    5.62000n    700.0029m      4.0633u    700.0029m      4.0633u  
    5.63000n    700.0041m      5.5513u    700.0041m      5.5513u  
    5.64000n    700.0052m      7.0392u    700.0052m      7.0392u  
    5.65000n    700.0064m      8.5272u    700.0064m      8.5272u  
    5.66000n    700.0076m     10.0152u    700.0076m     10.0152u  
    5.67000n    700.0087m     11.5032u    700.0087m     11.5032u  
    5.68000n    700.0099m     12.9912u    700.0099m     12.9912u  
    5.69000n    700.0111m     14.4791u    700.0111m     14.4791u  
    5.70000n    700.0122m     15.9671u    700.0122m     15.9671u  
    5.71000n    700.0134m     17.4551u    700.0134m     17.4551u  
    5.72000n    699.9990m   -618.3277n    699.9990m   -618.3277n  
    5.73000n    700.0002m    564.5537n    700.0002m    564.5537n  
    5.74000n    699.9998m      0.         699.9998m      0.       
    5.75000n    699.9997m      0.         699.9997m      0.       
    5.76000n    699.9998m      0.         699.9998m      0.       
    5.77000n    699.9998m      0.         699.9998m      0.       
    5.78000n    699.9998m      0.         699.9998m      0.       
    5.79000n    699.9998m      0.         699.9998m      0.       
    5.80000n    699.9998m      0.         699.9998m      0.       
    5.81000n    699.9998m      0.         699.9998m      0.       
    5.82000n    699.9998m      0.         699.9998m      0.       
    5.83000n    699.9997m      0.         699.9997m      0.       
    5.84000n    699.9997m      0.         699.9997m      0.       
    5.85000n    699.9997m      0.         699.9997m      0.       
    5.86000n    699.9997m      0.         699.9997m      0.       
    5.87000n    699.9998m      0.         699.9998m      0.       
    5.88000n    699.9998m      0.         699.9998m      0.       
    5.89000n    699.9998m      0.         699.9998m      0.       
    5.90000n    699.9998m      0.         699.9998m      0.       
    5.91000n    699.9998m      0.         699.9998m      0.       
    5.92000n    699.9998m      0.         699.9998m      0.       
    5.93000n    699.9998m      0.         699.9998m      0.       
    5.94000n    699.9998m      0.         699.9998m      0.       
    5.95000n    699.9998m      0.         699.9998m      0.       
    5.96000n    699.9998m      0.         699.9998m      0.       
    5.97000n    699.9998m      0.         699.9998m      0.       
    5.98000n    699.9998m      0.         699.9998m      0.       
    5.99000n    699.9997m      0.         699.9997m      0.       
    6.00000n    699.9997m      0.         699.9997m      0.       
    6.01000n    699.9998m      0.         699.9998m      0.       
    6.02000n    699.9998m      0.         699.9998m      0.       
    6.03000n    699.9998m      0.         699.9998m      0.       
    6.04000n    699.9998m      0.         699.9998m      0.       
    6.05000n    699.9998m      0.         699.9998m      0.       
    6.06000n    699.9998m      0.         699.9998m      0.       
    6.07000n    699.9998m      0.         699.9998m      0.       
    6.08000n    699.9998m      0.         699.9998m      0.       
    6.09000n    699.9998m      0.         699.9998m      0.       
    6.10000n    699.9998m      0.         699.9998m      0.       
    6.11000n    699.9998m      0.         699.9998m      0.       
    6.12000n    699.9998m      0.         699.9998m      0.       
    6.13000n    699.9998m      0.         699.9998m      0.       
    6.14000n    699.9998m      0.         699.9998m      0.       
    6.15000n    699.9998m      0.         699.9998m      0.       
    6.16000n    699.9998m      0.         699.9998m      0.       
[...]
    3.69000n      0.         700.0000m  
    3.70000n      0.         700.0000m  
    3.71000n      0.         700.0000m  
    3.72000n      0.         500.0000m  
    3.73000n      0.         150.0000m  
    3.74000n      0.           0.       
    3.75000n      0.           0.       
    3.76000n      0.           0.       
    3.77000n      0.           0.       
    3.78000n      0.           0.       
    3.79000n      0.           0.       
    3.80000n      0.           0.       
    3.81000n      0.           0.       
    3.82000n      0.           0.       
    3.83000n      0.           0.       
    3.84000n      0.           0.       
    3.85000n      0.           0.       
    3.86000n      0.           0.       
    3.87000n      0.           0.       
    3.88000n      0.           0.       
    3.89000n      0.           0.       
    3.90000n      0.           0.       
    3.91000n      0.           0.       
    3.92000n      0.           0.       
    3.93000n      0.           0.       
    3.94000n      0.           0.       
    3.95000n      0.           0.       
    3.96000n      0.           0.       
    3.97000n      0.           0.       
    3.98000n      0.           0.       
    3.99000n      0.           0.       
    4.00000n      0.           0.       
    4.01000n      0.           0.       
    4.02000n      0.           0.       
    4.03000n      0.           0.       
    4.04000n      0.           0.       
    4.05000n      0.           0.       
    4.06000n      0.           0.       
    4.07000n      0.           0.       
    4.08000n      0.           0.       
    4.09000n      0.           0.       
    4.10000n      0.           0.       
    4.11000n      0.           0.       
    4.12000n      0.           0.       
    4.13000n      0.           0.       
    4.14000n      0.           0.       
    4.15000n      0.           0.       
    4.16000n      0.           0.       
    4.17000n      0.           0.       
    4.18000n      0.           0.       
    4.19000n      0.           0.       
    4.20000n      0.           0.       
    4.21000n      0.           0.       
    4.22000n      0.           0.       
    4.23000n      0.           0.       
    4.24000n      0.           0.       
    4.25000n      0.           0.       
    4.26000n      0.           0.       
    4.27000n      0.           0.       
    4.28000n      0.           0.       
    4.29000n      0.         150.0000m  
    4.30000n      0.         500.0000m  
    4.31000n      0.         700.0000m  
    4.32000n      0.         700.0000m  
    4.33000n      0.         700.0000m  
    4.34000n      0.         700.0000m  
    4.35000n      0.         700.0000m  
    4.36000n      0.         700.0000m  
    4.37000n      0.         700.0000m  
    4.38000n      0.         700.0000m  
    4.39000n      0.         700.0000m  
    4.40000n      0.         700.0000m  
    4.41000n      0.         700.0000m  
    4.42000n      0.         700.0000m  
    4.43000n      0.         700.0000m  
    4.44000n      0.         700.0000m  
    4.45000n      0.         700.0000m  
    4.46000n      0.         700.0000m  
    4.47000n      0.         700.0000m  
    4.48000n      0.         700.0000m  
    4.49000n      0.         700.0000m  
    4.50000n      0.         700.0000m  
    4.51000n      0.         700.0000m  
    4.52000n      0.         700.0000m  
    4.53000n      0.         700.0000m  
    4.54000n      0.         700.0000m  
    4.55000n      0.         700.0000m  
    4.56000n      0.         700.0000m  
    4.57000n      0.         700.0000m  
    4.58000n      0.         700.0000m  
    4.59000n      0.         700.0000m  
    4.60000n      0.         700.0000m  
    4.61000n      0.         700.0000m  
    4.62000n      0.         700.0000m  
    4.63000n      0.         700.0000m  
    4.64000n      0.         700.0000m  
    4.65000n      0.         700.0000m  
    4.66000n      0.         700.0000m  
    4.67000n      0.         700.0000m  
    4.68000n      0.         700.0000m  
    4.69000n      0.         700.0000m  
    4.70000n      0.         700.0000m  
    4.71000n      0.         700.0000m  
    4.72000n      0.         700.0000m  
    4.73000n      0.         700.0000m  
    4.74000n      0.         700.0000m  
    4.75000n      0.         700.0000m  
    4.76000n      0.         700.0000m  
    4.77000n      0.         700.0000m  
    4.78000n      0.         700.0000m  
    4.79000n      0.         700.0000m  
    4.80000n      0.         700.0000m  
    4.81000n      0.         700.0000m  
    4.82000n      0.         700.0000m  
    4.83000n      0.         700.0000m  
    4.84000n      0.         700.0000m  
    4.85000n      0.         700.0000m  
    4.86000n    100.0000m    700.0000m  
    4.87000n    450.0000m    700.0000m  
    4.88000n    700.0000m    700.0000m  
    4.89000n    700.0000m    700.0000m  
    4.90000n    700.0000m    700.0000m  
    4.91000n    700.0000m    700.0000m  
    4.92000n    700.0000m    700.0000m  
    4.93000n    700.0000m    700.0000m  
    4.94000n    700.0000m    700.0000m  
    4.95000n    700.0000m    700.0000m  
    4.96000n    700.0000m    700.0000m  
    4.97000n    700.0000m    700.0000m  
    4.98000n    700.0000m    700.0000m  
    4.99000n    700.0000m    700.0000m  
    5.00000n    700.0000m    700.0000m  
    5.01000n    700.0000m    700.0000m  
    5.02000n    700.0000m    700.0000m  
    5.03000n    700.0000m    700.0000m  
    5.04000n    700.0000m    700.0000m  
    5.05000n    700.0000m    700.0000m  
    5.06000n    700.0000m    700.0000m  
    5.07000n    700.0000m    700.0000m  
    5.08000n    700.0000m    700.0000m  
    5.09000n    700.0000m    700.0000m  
    5.10000n    700.0000m    700.0000m  
    5.11000n    700.0000m    700.0000m  
    5.12000n    700.0000m    700.0000m  
    5.13000n    700.0000m    700.0000m  
    5.14000n    700.0000m    700.0000m  
    5.15000n    450.0000m    700.0000m  
    5.16000n    100.0000m    700.0000m  
    5.17000n      0.         700.0000m  
    5.18000n      0.         700.0000m  
    5.19000n      0.         700.0000m  
    5.20000n      0.         700.0000m  
    5.21000n      0.         700.0000m  
    5.22000n      0.         700.0000m  
    5.23000n      0.         700.0000m  
    5.24000n      0.         700.0000m  
    5.25000n      0.         700.0000m  
    5.26000n      0.         700.0000m  
    5.27000n      0.         700.0000m  
    5.28000n      0.         700.0000m  
    5.29000n      0.         700.0000m  
    5.30000n      0.         700.0000m  
    5.31000n      0.         700.0000m  
    5.32000n      0.         700.0000m  
    5.33000n      0.         700.0000m  
    5.34000n      0.         700.0000m  
    5.35000n      0.         700.0000m  
    5.36000n      0.         700.0000m  
    5.37000n      0.         700.0000m  
    5.38000n      0.         700.0000m  
    5.39000n      0.         700.0000m  
    5.40000n      0.         700.0000m  
    5.41000n      0.         700.0000m  
    5.42000n      0.         700.0000m  
    5.43000n      0.         700.0000m  
    5.44000n      0.         700.0000m  
    5.45000n      0.         700.0000m  
    5.46000n      0.         700.0000m  
    5.47000n      0.         700.0000m  
    5.48000n      0.         700.0000m  
    5.49000n      0.         700.0000m  
    5.50000n      0.         700.0000m  
    5.51000n      0.         700.0000m  
    5.52000n      0.         700.0000m  
    5.53000n      0.         700.0000m  
    5.54000n      0.         700.0000m  
    5.55000n      0.         700.0000m  
    5.56000n      0.         700.0000m  
    5.57000n      0.         700.0000m  
    5.58000n      0.         700.0000m  
    5.59000n      0.         700.0000m  
    5.60000n      0.         700.0000m  
    5.61000n      0.         700.0000m  
    5.62000n      0.         700.0000m  
    5.63000n      0.         700.0000m  
    5.64000n      0.         700.0000m  
    5.65000n      0.         700.0000m  
    5.66000n      0.         700.0000m  
    5.67000n      0.         700.0000m  
    5.68000n      0.         700.0000m  
    5.69000n      0.         700.0000m  
    5.70000n      0.         700.0000m  
    5.71000n      0.         700.0000m  
    5.72000n      0.         500.0000m  
    5.73000n      0.         150.0000m  
    5.74000n      0.           0.       
    5.75000n      0.           0.       
    5.76000n      0.           0.       
    5.77000n      0.           0.       
    5.78000n      0.           0.       
    5.79000n      0.           0.       
    5.80000n      0.           0.       
    5.81000n      0.           0.       
    5.82000n      0.           0.       
    5.83000n      0.           0.       
    5.84000n      0.           0.       
    5.85000n      0.           0.       
    5.86000n      0.           0.       
    5.87000n      0.           0.       
    5.88000n      0.           0.       
    5.89000n      0.           0.       
    5.90000n      0.           0.       
    5.91000n      0.           0.       
    5.92000n      0.           0.       
    5.93000n      0.           0.       
    5.94000n      0.           0.       
    5.95000n      0.           0.       
    5.96000n      0.           0.       
    5.97000n      0.           0.       
    5.98000n      0.           0.       
    5.99000n      0.           0.       
    6.00000n      0.           0.       
    6.01000n      0.           0.       
    6.02000n      0.           0.       
    6.03000n      0.           0.       
    6.04000n      0.           0.       
    6.05000n      0.           0.       
    6.06000n      0.           0.       
    6.07000n      0.           0.       
    6.08000n      0.           0.       
    6.09000n      0.           0.       
    6.10000n      0.           0.       
    6.11000n      0.           0.       
    6.12000n      0.           0.       
    6.13000n      0.           0.       
    6.14000n      0.           0.       
    6.15000n      0.           0.       
    6.16000n      0.           0.       
    6.17000n      0.           0.       
    6.18000n      0.           0.       
    6.19000n      0.           0.       
    6.20000n      0.           0.       
    6.21000n      0.           0.       
    6.22000n      0.           0.       
    6.23000n      0.           0.       
    6.24000n      0.           0.       
    6.25000n      0.           0.       
    6.26000n      0.           0.       
    6.27000n      0.           0.       
    6.28000n      0.           0.       
    6.29000n      0.         150.0000m  
    6.30000n      0.         500.0000m  
    6.31000n      0.         700.0000m  
    6.32000n      0.         700.0000m  
    6.33000n      0.         700.0000m  
    6.34000n      0.         700.0000m  
    6.35000n      0.         700.0000m  
    6.36000n      0.         700.0000m  
    6.37000n      0.         700.0000m  
    6.38000n      0.         700.0000m  
    6.39000n      0.         700.0000m  
    6.40000n      0.         700.0000m  
    6.41000n      0.         700.0000m  
    6.42000n      0.         700.0000m  
    6.43000n      0.         700.0000m  
    6.44000n      0.         700.0000m  
    6.45000n      0.         700.0000m  
    6.46000n      0.         700.0000m  
    6.47000n      0.         700.0000m  
    6.48000n      0.         700.0000m  
    6.49000n      0.         700.0000m  
    6.50000n      0.         700.0000m  
    6.51000n      0.         700.0000m  
    6.52000n      0.         700.0000m  
    6.53000n      0.         700.0000m  
    6.54000n      0.         700.0000m  
    6.55000n      0.         700.0000m  
    6.56000n      0.         700.0000m  
    6.57000n      0.         700.0000m  
    6.58000n      0.         700.0000m  
    6.59000n      0.         700.0000m  
    6.60000n      0.         700.0000m  
    6.61000n      0.         700.0000m  
    6.62000n      0.         700.0000m  
    6.63000n      0.         700.0000m  
    6.64000n      0.         700.0000m  
    6.65000n      0.         700.0000m  
    6.66000n      0.         700.0000m  
    6.67000n      0.         700.0000m  
    6.68000n      0.         700.0000m  
    6.69000n      0.         700.0000m  
    6.70000n      0.         700.0000m  
    6.71000n      0.         700.0000m  
    6.72000n      0.         700.0000m  
    6.73000n      0.         700.0000m  
    6.74000n      0.         700.0000m  
    6.75000n      0.         700.0000m  
    6.76000n      0.         700.0000m  
    6.77000n      0.         700.0000m  
    6.78000n      0.         700.0000m  
    6.79000n      0.         700.0000m  
    6.80000n      0.         700.0000m  
    6.81000n      0.         700.0000m  
    6.82000n      0.         700.0000m  
    6.83000n      0.         700.0000m  
    6.84000n      0.         700.0000m  
    6.85000n      0.         700.0000m  
    6.86000n    100.0000m    700.0000m  
    6.87000n    450.0000m    700.0000m  
    6.88000n    700.0000m    700.0000m  
    6.89000n    700.0000m    700.0000m  
    6.90000n    700.0000m    700.0000m  
    6.91000n    700.0000m    700.0000m  
    6.92000n    700.0000m    700.0000m  
    6.93000n    700.0000m    700.0000m  
    6.94000n    700.0000m    700.0000m  
    6.95000n    700.0000m    700.0000m  
    6.96000n    700.0000m    700.0000m  
    6.97000n    700.0000m    700.0000m  
    6.98000n    700.0000m    700.0000m  
    6.99000n    700.0000m    700.0000m  
    7.00000n    700.0000m    700.0000m  
    7.01000n    700.0000m    700.0000m  
    7.02000n    700.0000m    700.0000m  
    7.03000n    700.0000m    700.0000m  
    7.04000n    700.0000m    700.0000m  
    7.05000n    700.0000m    700.0000m  
    7.06000n    700.0000m    700.0000m  
    7.07000n    700.0000m    700.0000m  
    7.08000n    700.0000m    700.0000m  
    7.09000n    700.0000m    700.0000m  
    7.10000n    700.0000m    700.0000m  
    7.11000n    700.0000m    700.0000m  
    7.12000n    700.0000m    700.0000m  
    7.13000n    700.0000m    700.0000m  
    7.14000n    700.0000m    700.0000m  
    7.15000n    450.0000m    700.0000m  
    7.16000n    100.0000m    700.0000m  
    7.17000n      0.         700.0000m  
    7.18000n      0.         700.0000m  
    7.19000n      0.         700.0000m  
    7.20000n      0.         700.0000m  
    7.21000n      0.         700.0000m  
    7.22000n      0.         700.0000m  
    7.23000n      0.         700.0000m  
    7.24000n      0.         700.0000m  
    7.25000n      0.         700.0000m  
    7.26000n      0.         700.0000m  
    7.27000n      0.         700.0000m  
    7.28000n      0.         700.0000m  
    7.29000n      0.         700.0000m  
    7.30000n      0.         700.0000m  
    7.31000n      0.         700.0000m  
    7.32000n      0.         700.0000m  
    7.33000n      0.         700.0000m  
    7.34000n      0.         700.0000m  
    7.35000n      0.         700.0000m  
    7.36000n      0.         700.0000m  
    7.37000n      0.         700.0000m  
    7.38000n      0.         700.0000m  
    7.39000n      0.         700.0000m  
    7.40000n      0.         700.0000m  
    7.41000n      0.         700.0000m  
    7.42000n      0.         700.0000m  
    7.43000n      0.         700.0000m  
    7.44000n      0.         700.0000m  
    7.45000n      0.         700.0000m  
    7.46000n      0.         700.0000m  
    7.47000n      0.         700.0000m  
    7.48000n      0.         700.0000m  
    7.49000n      0.         700.0000m  
    7.50000n      0.         700.0000m  
    7.51000n      0.         700.0000m  
    7.52000n      0.         700.0000m  
    7.53000n      0.         700.0000m  
    7.54000n      0.         700.0000m  
    7.55000n      0.         700.0000m  
    7.56000n      0.         700.0000m  
    7.57000n      0.         700.0000m  
    7.58000n      0.         700.0000m  
    7.59000n      0.         700.0000m  
    7.60000n      0.         700.0000m  
    7.61000n      0.         700.0000m  
    7.62000n      0.         700.0000m  
    7.63000n      0.         700.0000m  
    7.64000n      0.         700.0000m  
    7.65000n      0.         700.0000m  
    7.66000n      0.         700.0000m  
    7.67000n      0.         700.0000m  
    7.68000n      0.         700.0000m  
    7.69000n      0.         700.0000m  
    7.70000n      0.         700.0000m  
    7.71000n      0.         700.0000m  
    7.72000n      0.         500.0000m  
    7.73000n      0.         150.0000m  
    7.74000n      0.           0.       
    7.75000n      0.           0.       
    7.76000n      0.           0.       
    7.77000n      0.           0.       
    7.78000n      0.           0.       
    7.79000n      0.           0.       
    7.80000n      0.           0.       
    7.81000n      0.           0.       
    7.82000n      0.           0.       
    7.83000n      0.           0.       
    7.84000n      0.           0.       
    7.85000n      0.           0.       
    7.86000n      0.           0.       
    7.87000n      0.           0.       
    7.88000n      0.           0.       
    7.89000n      0.           0.       
    7.90000n      0.           0.       
    7.91000n      0.           0.       
    7.92000n      0.           0.       
    7.93000n      0.           0.       
    7.94000n      0.           0.       
    7.95000n      0.           0.       
    7.96000n      0.           0.       
    7.97000n      0.           0.       
    7.98000n      0.           0.       
    7.99000n      0.           0.       
    8.00000n      0.           0.       
y
 escrita_0=  10.3946p  targ= 877.5375p   trig= 867.1429p
 leitura_0=  89.9426p  targ=   2.9571n   trig=   2.8671n
 escrita_1=  12.5790p  targ=   4.8797n   trig=   4.8671n
 leitura_1=  89.9304p  targ=   6.9571n   trig=   6.8671n
 energia_vdd= -68.7676f  from=   0.          to=   8.0000n

          ***** job concluded
1****** HSPICE -- H-2013.03-SP1 32-BIT (May 29 2013) RHEL32 ******              
 ******  
 'dice 0.5ghz'

  ******  job statistics summary tnom=  25.000 temp=  25.000 *****
  
  
 ******  Machine Information  ******
 CPU:
 model name	: Intel(R) Xeon(R) CPU           E5620  @ 2.40GHz
 cpu MHz	: 2400.116
  
 OS:
 Linux version 3.2.0-4-amd64 (debian-kernel@lists.debian.org) (gcc version 4.6.3 (Debian 4.6.3-15) ) #1 SMP Debian 3.2.39-2


  ******  HSPICE Threads Information  ******

  Command Line Threads Count :     1
  Available CPU Count        :    16
  Actual Threads Count       :     1


  ******  Circuit Statistics  ******
  # nodes       =      16 # elements   =      34
  # resistors   =       0 # capacitors =       2 # inductors   =       0
  # mutual_inds =       0 # vccs       =       0 # vcvs        =       0
  # cccs        =       0 # ccvs       =       0 # volt_srcs   =       5
  # curr_srcs   =       0 # diodes     =       0 # bjts        =       0
  # jfets       =       0 # mosfets    =      27 # U elements  =       0
  # T elements  =       0 # W elements =       0 # B elements  =       0
  # S elements  =       0 # P elements =       0 # va device   =       0
  # vector_srcs =       0 # N elements =       0


  ******  Runtime Statistics (seconds)  ******

  analysis           time    # points   tot. iter  conv.iter
  op point           0.01           1           8
  transient          0.22         801         958         390 rev=        76
  readin             0.01
  errchk             0.02
  setup              0.00
  output             0.01


           peak memory used        120.44 megabytes
           total cpu time            0.27 seconds
           total elapsed time        0.48 seconds
           job started at     17:31:49 01/19/2020
           job ended   at     17:31:50 01/19/2020


 lic: Release hspice token(s) 
 lic: total license checkout elapse time:        0.20(s)
