$DATA1 SOURCE='HSPICE' VERSION='H-2013.03-SP1 32-BIT'
.TITLE '* circuito dice'
 escrita_0        energia_vdd      temper           alter#            
  7.810e-12       -3.923e-14         25.0000        1                 
