Using: /usr/synopsys/hspice_H-2013.03-SP1/hspice/linux/hspice 8tser.txt
 ****** HSPICE -- H-2013.03-SP1 32-BIT (May 29 2013) RHEL32 ******              
  Copyright (C) 2013 Synopsys, Inc. All Rights Reserved.                        
  Unpublished-rights reserved under US copyright laws.
  This program is protected by law and is subject to the
  terms and conditions of the license agreement from Synopsys.
  Use of this program is your acceptance to be bound by the
  license agreement. HSPICE is the trademark of Synopsys, Inc.
  Input File: 8tser.txt                                                         
  Command line options: 8tser.txt
 lic:  
 lic: FLEXlm: v10.9.8 
 lic: USER:   mariahang            HOSTNAME: sagittarius-a 
 lic: HOSTID: 00039988e3a4         PID:      22309 
 lic: Using FLEXlm license file: 
 lic: 27020@localhost 
 lic: Checkout 1 hspice 
 lic: License/Maintenance for hspice will expire on 08-jun-2020/2019.06 
 lic: 1(in_use)/50(total) FLOATING license(s) on SERVER 27020@localhost 
 lic:   
 Init: read install configuration file: /usr/synopsys/hspice_H-2013.03-SP1/hspice/meta.cfg
  **warning** (Leitura.txt:5) Global net name, "gnd", in subckt pin list. The pin will be connected to the local net. Recommend to not use global net names in subckt pin lists.
1****** HSPICE -- H-2013.03-SP1 32-BIT (May 29 2013) RHEL32 ******              
 ******  
 '8t-ser 0.5ghz'

  ******  circuit name directory
 circuit number to circuit name directory
   number circuitname                     definition         multiplier
        0 main circuit
        1 xprecarga.                      pre_carga          1.00 
        2 xescrita.                       escrita            1.00 
        3 xleitura.                       leitura            1.00 
1****** HSPICE -- H-2013.03-SP1 32-BIT (May 29 2013) RHEL32 ******              
 ******  
 '8t-ser 0.5ghz'

  ******  mos   model parameters tnom=  25.000 temp=  25.000 *****
 Model Name: nmos_rvt 
 BSIM-MG BULK Model(Level72)
   VERSION =    107  
   L = 2.1e-08 
   D =  4e-08 
   TFIN = 6.5e-09 
   FPITCH = 2.7e-08 
   NF = 1 
   NFIN =      1 
   NGCON = 1 
   ASEO =      0 
   ADEO =      0 
   PSEO =      0 
   PDEO =      0 
   ASEJ =      0 
   ADEJ =      0 
   PSEJ =      0 
   PDEJ =      0 
   CGSP =      0 
   CGDP =      0 
   CDSP =      0 
   NRS =      0 
   NRD =      0 
   LRSD = 2.1e-08 
   XL =  1e-09 
   DTEMP =      0 
   DELVTRAND =      0 
   U0MULT =      1 
   IDS0MULT =      1 
   DEVTYPE = 1 
   BULKMOD = 1 
   COREMOD = 0 
   GEOMOD = 1 
   RDSMOD = 0 
   ASYMMOD = 0 
   IGCMOD = 1 
   IGBMOD = 0 
   GIDLMOD = 1 
   IIMOD = 0 
   NQSMOD = 0 
   SHMOD = 0 
   RGATEMOD = 0 
   RGEOMOD = 0 
   CGEOMOD = 0 
   CAPMOD = 0 
   LINT = -2e-09 
   LL =      0 
   LLN =      1 
   DLC =      0 
   DLCACC =      0 
   DLBIN =      0 
   LLC =      0 
   EOT =  1e-09 
   TOXP = 2.1e-09 
   EOTBOX = 1.4e-07 
   HFIN = 3.2e-08 
   FECH =      1 
   DELTAW =      0 
   FECHCV =      1 
   DELTAWCV =      0 
   NBODY =  1e+22 
   NSD =  2e+26 
   PHIG =  4.372 
   EPSROX =    3.9 
   EPSRSUB =   11.9 
   EASUB =   4.05 
   NI0SUB = 1.1e+16 
   BG0SUB =   1.17 
   NC0SUB = 2.86e+25 
   NGATE =      0 
   CIT =      0 
   CDSC =   0.01 
   CDSCD =   0.01 
   CDSCDR =   0.01 
   DVT0 =   0.05 
   DVT1 =   0.48 
   PHIN =   0.05 
   ETA0 =  0.062 
   ETA0R =  0.062 
   DSUB =   0.35 
   K1RSCE =      0 
   LPE0 =      0 
   DVTSHIFT =      0 
   PHIBE =    0.7 
   K0 =      0 
   K0SI =      1 
   K1 =      0 
   K1SAT =      0 
   QMFACTOR =    2.5 
   QMTCENIV =      0 
   QMTCENCV =      0 
   QMTCENCVA =      0 
   AQMTCEN =      0 
   BQMTCEN = 1.2e-08 
   ETAQM =   0.54 
   QM0 =  0.001 
   PQM =   0.66 
   QM0ACC =  0.001 
   PQMACC =   0.66 
   VSAT =  7e+04 
   AVSAT =      0 
   BVSAT =  1e-07 
   VSAT1 =  7e+04 
   VSAT1R =  7e+04 
   AVSAT1 =      0 
   BVSAT1 =  1e-07 
   DELTAVSAT =   0.28 
   PSAT =      2 
   APSAT =      0 
   BPSAT =      1 
   KSATIV =      2 
   VSATCV =  7e+04 
   AVSATCV =      0 
   BVSATCV =  1e-07 
   MEXP =      4 
   AMEXP =      0 
   BMEXP =      1 
   PTWG =     30 
   PTWGR =     30 
   APTWG =      0 
   BPTWG =  1e-07 
   AT =  0.001 
   TMEXP =      0 
   PTWGT =  0.004 
   U0 = 0.0252 
   ETAMOB =      2 
   UP =      0 
   LPA =      1 
   UA =   0.55 
   AUA =      0 
   BUA =  1e-07 
   UC =      0 
   EU =    1.2 
   AEU =      0 
   BEU =  1e-07 
   UD =      0 
   AUD =      0 
   BUD =  5e-08 
   UCS =      1 
   UTE =   -0.7 
   UTL =      0 
   EMOBT =      0 
   UA1 = 0.001032 
   UC1 = 5.6e-11 
   UD1 =      0 
   UCSTE = -0.004775 
   RDSWMIN =      0 
   RDSW =    200 
   ARDSW =      0 
   BRDSW =  1e-07 
   RSWMIN =      0 
   RSW =     50 
   ARSW =      0 
   BRSW =  1e-07 
   RDWMIN =      0 
   RDW =     50 
   ARDW =      0 
   BRDW =  1e-07 
   RSDR =      0 
   RSDRR =      0 
   RDDR =      0 
   RDDRR =      0 
   PRSDR =      1 
   PRDDR =      1 
   PRWGS =      0 
   PRWGD =      0 
   WR =      1 
   PRT =      0 
   TRSDR =      0 
   TRDDR =      0 
   PDIBL1 =      0 
   PDIBL1R =      0 
   PDIBL2 =  0.002 
   DROUT =      1 
   PVAG =      0 
   PCLM =   0.05 
   APCLM =      0 
   BPCLM =  1e-07 
   PCLMG =      0 
   PCLMCV =   0.05 
   A1 =      0 
   A2 =      0 
   RGEXT =      0 
   RGFIN =  0.001 
   RSHS =      0 
   RSHD =      0 
   HEPI =  1e-08 
   TSILI =  1e-08 
   RHOC =  1e-12 
   RHORSD =      1 
   CRATIO =    0.5 
   DELTAPRSD =      0 
   SDTERM = 0 
   LSP = 4.4e-09 
   EPSRSP =    3.9 
   TGATE =  3e-08 
   TMASK =  3e-08 
   ASILIEND =      0 
   ARSDEND =      0 
   PRSDEND =      0 
   NSDE =  2e+25 
   RGEOA =      1 
   RGEOB =      0 
   RGEOC =      0 
   RGEOD =      0 
   RGEOE =      0 
   CGEOA =      1 
   CGEOB =      0 
   CGEOC =      0 
   CGEOD =      0 
   CGEOE =      1 
   AIGBINV = 0.0111 
   BIGBINV = 0.000949 
   CIGBINV =  0.006 
   EIGBINV =    1.1 
   NIGBINV =      3 
   AIGBACC = 0.0136 
   BIGBACC = 0.00171 
   CIGBACC =  0.075 
   NIGBACC =      1 
   AIGC =  0.014 
   BIGC =  0.005 
   CIGC =   0.25 
   PIGCD =      1 
   DLCIGS =  1e-09 
   AIGS = 0.0115 
   BIGS = 0.00332 
   CIGS =   0.35 
   DLCIGD =  1e-09 
   AIGD = 0.0115 
   BIGD = 0.00332 
   CIGD =   0.35 
   TOXREF = 1.2e-09 
   NTOX =      1 
   POXEDGE =    1.1 
   AGISL =  1e-12 
   BGISL =  1e+07 
   CGISL =    0.5 
   EGISL =   0.35 
   PGISL =      1 
   AGIDL =  1e-12 
   BGIDL =  1e+07 
   CGIDL =    0.5 
   EGIDL =   0.35 
   PGIDL =      1 
   ALPHA0 =      0 
   ALPHA1 =      0 
   BETA0 =      0 
   BETAII0 =      0 
   BETAII1 =      0 
   BETAII2 =    0.1 
   ESATII =  1e+07 
   LII =  5e-10 
   SII0 =    0.5 
   SII1 =    0.1 
   SII2 =      0 
   SIID =      0 
   EOTACC =  1e-10 
   DELVFBACC =      0 
   CFS =      0 
   CFD =      0 
   COVS =      0 
   COVD =      0 
   CGSO = 1.6e-10 
   CGDO = 1.6e-10 
   CGSL =      0 
   CGDL =      0 
   CKAPPAS =    0.6 
   CKAPPAD =    0.6 
   CGBO =      0 
   CGBN =      0 
   CGBL =      0 
   CKAPPAB =    0.6 
   CSDESW =      0 
   CJS = 0.0005 
   CJD = 0.0005 
   CJSWS =  5e-10 
   CJSWD =  5e-10 
   CJSWGS =      0 
   CJSWGD =      0 
   PBS =      1 
   PBD =      1 
   PBSWS =      1 
   PBSWD =      1 
   PBSWGS =      1 
   PBSWGD =      1 
   MJS =    0.5 
   MJD =    0.5 
   MJSWS =   0.33 
   MJSWD =   0.33 
   MJSWGS =   0.33 
   MJSWGD =   0.33 
   SJS =      0 
   SJD =      0 
   SJSWS =      0 
   SJSWD =      0 
   SJSWGS =      0 
   SJSWGD =      0 
   MJS2 =  0.125 
   MJD2 =  0.125 
   MJSWS2 =  0.083 
   MJSWD2 =  0.083 
   MJSWGS2 =  0.083 
   MJSWGD2 =  0.083 
   JSS = 0.0001 
   JSD = 0.0001 
   JSWS =      0 
   JSWD =      0 
   JSWGS =      0 
   JSWGD =      0 
   NJS =      1 
   NJD =      1 
   IJTHSFWD =    0.1 
   IJTHDFWD =    0.1 
   IJTHSREV =    0.1 
   IJTHDREV =    0.1 
   BVS =     10 
   BVD =     10 
   XJBVS =      1 
   XJBVD =      1 
   JTSS =      0 
   JTSD =      0 
   JTSSWS =      0 
   JTSSWD =      0 
   JTSSWGS =      0 
   JTSSWGD =      0 
   JTWEFF =      0 
   NJTS =     20 
   NJTSD =     20 
   NJTSSW =     20 
   NJTSSWD =     20 
   NJTSSWG =     20 
   NJTSSWGD =     20 
   VTSS =     10 
   VTSD =     10 
   VTSSWS =     10 
   VTSSWD =     10 
   VTSSWGS =     10 
   VTSSWGD =     10 
   LINTIGEN =      0 
   NTGEN =      1 
   AIGEN =      0 
   BIGEN =      0 
   XRCRG1 =     12 
   XRCRG2 =      1 
   NSEG = 5 
   EF =      1 
   EM = 4.1e+07 
   NOIA = 6.25e+39 
   NOIB = 3.125e+24 
   NOIC = 8.75e+07 
   NTNOI =      1 
   TNOM =     25 
   TBGASUB = 0.000473 
   TBGBSUB =    636 
   KT1 =      0 
   KT1L =      0 
   TSS =      0 
   IIT =   -0.5 
   TII =      0 
   TGIDL = -0.007 
   IGT =    2.5 
   TCJ =      0 
   TCJSW =      0 
   TCJSWG =      0 
   TPB =      0 
   TPBSW =      0 
   TPBSWG =      0 
   XTIS =      3 
   XTID =      3 
   XTSS =   0.02 
   XTSD =   0.02 
   XTSSWS =   0.02 
   XTSSWD =   0.02 
   XTSSWGS =   0.02 
   XTSSWGD =   0.02 
   TNJTS =      0 
   TNJTSD =      0 
   TNJTSSW =      0 
   TNJTSSWD =      0 
   TNJTSSWG =      0 
   TNJTSSWGD =      0 
   RTH0 =  0.225 
   CTH0 = 1.243e-06 
   WTH0 = 2.6e-07 
   LNBODY =      0 
   NNBODY =      0 
   PNBODY =      0 
   LPHIG =      0 
   NPHIG =      0 
   PPHIG =      0 
   LNGATE =      0 
   NNGATE =      0 
   PNGATE =      0 
   LCIT =      0 
   NCIT =      0 
   PCIT =      0 
   LCDSC =      0 
   NCDSC =      0 
   PCDSC =      0 
   LCDSCD =  5e-05 
   NCDSCD =      0 
   PCDSCD =      0 
   LCDSCDR =  5e-05 
   NCDSCDR =      0 
   PCDSCDR =      0 
   LDVT0 =      0 
   NDVT0 =      0 
   PDVT0 =      0 
   LDVT1 =      0 
   NDVT1 =      0 
   PDVT1 =      0 
   LPHIN =      0 
   NPHIN =      0 
   PPHIN =      0 
   LETA0 =      0 
   NETA0 =      0 
   PETA0 =      0 
   LETA0R =      0 
   NETA0R =      0 
   PETA0R =      0 
   LDSUB =      0 
   NDSUB =      0 
   PDSUB =      0 
   LK1RSCE =      0 
   NK1RSCE =      0 
   PK1RSCE =      0 
   LLPE0 =      0 
   NLPE0 =      0 
   PLPE0 =      0 
   LDVTSHIFT =      0 
   NDVTSHIFT =      0 
   PDVTSHIFT =      0 
   LPHIBE =      0 
   NPHIBE =      0 
   PPHIBE =      0 
   LK0 =      0 
   NK0 =      0 
   PK0 =      0 
   LK0SI =      0 
   NK0SI =      0 
   PK0SI =      0 
   LK1 =      0 
   NK1 =      0 
   PK1 =      0 
   LK1SAT =      0 
   NK1SAT =      0 
   PK1SAT =      0 
   LDVTB =      0 
   NDVTB =      0 
   PDVTB =      0 
   LLPEB =      0 
   NLPEB =      0 
   PLPEB =      0 
   LQMFACTOR =      0 
   NQMFACTOR =      0 
   PQMFACTOR =      0 
   LQMTCENIV =      0 
   NQMTCENIV =      0 
   PQMTCENIV =      0 
   LQMTCENCV =      0 
   NQMTCENCV =      0 
   PQMTCENCV =      0 
   LQMTCENCVA =      0 
   NQMTCENCVA =      0 
   PQMTCENCVA =      0 
   LVSAT =      0 
   NVSAT =      0 
   PVSAT =      0 
   LVSAT1 =      0 
   NVSAT1 =      0 
   PVSAT1 =      0 
   LVSAT1R =      0 
   NVSAT1R =      0 
   PVSAT1R =      0 
   LPSAT =      0 
   NPSAT =      0 
   PPSAT =      0 
   LDELTAVSAT =      0 
   NDELTAVSAT =      0 
   PDELTAVSAT =      0 
   LKSATIV =      0 
   NKSATIV =      0 
   PKSATIV =      0 
   LVSATCV =      0 
   NVSATCV =      0 
   PVSATCV =      0 
   LMEXP =      0 
   NMEXP =      0 
   PMEXP =      0 
   LPTWG =      0 
   NPTWG =      0 
   PPTWG =      0 
   LPTWGR =      0 
   NPTWGR =      0 
   PPTWGR =      0 
   LU0 =      0 
   NU0 =      0 
   PU0 =      0 
   LETAMOB =      0 
   NETAMOB =      0 
   PETAMOB =      0 
   LUP =      0 
   NUP =      0 
   PUP =      0 
   LUA =      0 
   NUA =      0 
   PUA =      0 
   LUC =      0 
   NUC =      0 
   PUC =      0 
   LEU =      0 
   NEU =      0 
   PEU =      0 
   LUD =      0 
   NUD =      0 
   PUD =      0 
   LUCS =      0 
   NUCS =      0 
   PUCS =      0 
   LPCLM =      0 
   NPCLM =      0 
   PPCLM =      0 
   LPCLMG =      0 
   NPCLMG =      0 
   PPCLMG =      0 
   LPCLMCV =      0 
   NPCLMCV =      0 
   PPCLMCV =      0 
   LA1 =      0 
   NA1 =      0 
   PA1 =      0 
   LA2 =      0 
   NA2 =      0 
   PA2 =      0 
   LRDSW =    0.2 
   NRDSW =      0 
   PRDSW =      0 
   LRSW =      0 
   NRSW =      0 
   PRSW =      0 
   LRDW =      0 
   NRDW =      0 
   PRDW =      0 
   LPRWGS =      0 
   NPRWGS =      0 
   PPRWGS =      0 
   LPRWGD =      0 
   NPRWGD =      0 
   PPRWGD =      0 
   LWR =      0 
   NWR =      0 
   PWR =      0 
   LPDIBL1 =      0 
   NPDIBL1 =      0 
   PPDIBL1 =      0 
   LPDIBL1R =      0 
   NPDIBL1R =      0 
   PPDIBL1R =      0 
   LPDIBL2 =      0 
   NPDIBL2 =      0 
   PPDIBL2 =      0 
   LDROUT =      0 
   NDROUT =      0 
   PDROUT =      0 
   LPVAG =      0 
   NPVAG =      0 
   PPVAG =      0 
   LAIGBINV =      0 
   NAIGBINV =      0 
   PAIGBINV =      0 
   LBIGBINV =      0 
   NBIGBINV =      0 
   PBIGBINV =      0 
   LCIGBINV =      0 
   NCIGBINV =      0 
   PCIGBINV =      0 
   LEIGBINV =      0 
   NEIGBINV =      0 
   PEIGBINV =      0 
   LNIGBINV =      0 
   NNIGBINV =      0 
   PNIGBINV =      0 
   LAIGBACC =      0 
   NAIGBACC =      0 
   PAIGBACC =      0 
   LBIGBACC =      0 
   NBIGBACC =      0 
   PBIGBACC =      0 
   LCIGBACC =      0 
   NCIGBACC =      0 
   PCIGBACC =      0 
   LNIGBACC =      0 
   NNIGBACC =      0 
   PNIGBACC =      0 
   LAIGC =      0 
   NAIGC =      0 
   PAIGC =      0 
   LBIGC =      0 
   NBIGC =      0 
   PBIGC =      0 
   LCIGC =      0 
   NCIGC =      0 
   PCIGC =      0 
   LPIGCD =      0 
   NPIGCD =      0 
   PPIGCD =      0 
   LAIGS =      0 
   NAIGS =      0 
   PAIGS =      0 
   LBIGS =      0 
   NBIGS =      0 
   PBIGS =      0 
   LCIGS =      0 
   NCIGS =      0 
   PCIGS =      0 
   LAIGD =      0 
   NAIGD =      0 
   PAIGD =      0 
   LBIGD =      0 
   NBIGD =      0 
   PBIGD =      0 
   LCIGD =      0 
   NCIGD =      0 
   PCIGD =      0 
   LNTOX =      0 
   NNTOX =      0 
   PNTOX =      0 
   LPOXEDGE =      0 
   NPOXEDGE =      0 
   PPOXEDGE =      0 
   LAGISL =      0 
   NAGISL =      0 
   PAGISL =      0 
   LBGISL =      0 
   NBGISL =      0 
   PBGISL =      0 
   LCGISL =      0 
   NCGISL =      0 
   PCGISL =      0 
   LEGISL =      0 
   NEGISL =      0 
   PEGISL =      0 
   LPGISL =      0 
   NPGISL =      0 
   PPGISL =      0 
   LAGIDL =      0 
   NAGIDL =      0 
   PAGIDL =      0 
   LBGIDL =      0 
   NBGIDL =      0 
   PBGIDL =      0 
   LCGIDL =      0 
   NCGIDL =      0 
   PCGIDL =      0 
   LEGIDL =      0 
   NEGIDL =      0 
   PEGIDL =      0 
   LPGIDL =      0 
   NPGIDL =      0 
   PPGIDL =      0 
   LALPHA0 =      0 
   NALPHA0 =      0 
   PALPHA0 =      0 
   LALPHA1 =      0 
   NALPHA1 =      0 
   PALPHA1 =      0 
   LBETA0 =      0 
   NBETA0 =      0 
   PBETA0 =      0 
   LBETAII0 =      0 
   NBETAII0 =      0 
   PBETAII0 =      0 
   LBETAII1 =      0 
   NBETAII1 =      0 
   PBETAII1 =      0 
   LBETAII2 =      0 
   NBETAII2 =      0 
   PBETAII2 =      0 
   LESATII =      0 
   NESATII =      0 
   PESATII =      0 
   LLII =      0 
   NLII =      0 
   PLII =      0 
   LSII0 =      0 
   NSII0 =      0 
   PSII0 =      0 
   LSII1 =      0 
   NSII1 =      0 
   PSII1 =      0 
   LSII2 =      0 
   NSII2 =      0 
   PSII2 =      0 
   LSIID =      0 
   NSIID =      0 
   PSIID =      0 
   LCFS =      0 
   NCFS =      0 
   PCFS =      0 
   LCFD =      0 
   NCFD =      0 
   PCFD =      0 
   LCOVS =      0 
   NCOVS =      0 
   PCOVS =      0 
   LCOVD =      0 
   NCOVD =      0 
   PCOVD =      0 
   LCGSL =      0 
   NCGSL =      0 
   PCGSL =      0 
   LCGDL =      0 
   NCGDL =      0 
   PCGDL =      0 
   LCKAPPAS =      0 
   NCKAPPAS =      0 
   PCKAPPAS =      0 
   LCKAPPAD =      0 
   NCKAPPAD =      0 
   PCKAPPAD =      0 
   LCGBL =      0 
   NCGBL =      0 
   PCGBL =      0 
   LCKAPPAB =      0 
   NCKAPPAB =      0 
   PCKAPPAB =      0 
   LNTGEN =      0 
   NNTGEN =      0 
   PNTGEN =      0 
   LAIGEN =      0 
   NAIGEN =      0 
   PAIGEN =      0 
   LBIGEN =      0 
   NBIGEN =      0 
   PBIGEN =      0 
   LXRCRG1 =      0 
   NXRCRG1 =      0 
   PXRCRG1 =      0 
   LXRCRG2 =      0 
   NXRCRG2 =      0 
   PXRCRG2 =      0 
   LINTNOI =      0 
   LUTE =      0 
   NUTE =      0 
   PUTE =      0 
   LUTL =      0 
   NUTL =      0 
   PUTL =      0 
   LEMOBT =      0 
   NEMOBT =      0 
   PEMOBT =      0 
   LUA1 =      0 
   NUA1 =      0 
   PUA1 =      0 
   LUC1 =      0 
   NUC1 =      0 
   PUC1 =      0 
   LUD1 =      0 
   NUD1 =      0 
   PUD1 =      0 
   LUCSTE =      0 
   NUCSTE =      0 
   PUCSTE =      0 
   LPTWGT =      0 
   NPTWGT =      0 
   PPTWGT =      0 
   LAT =      0 
   NAT =      0 
   PAT =      0 
   LSTTHETASAT =      0 
   NSTTHETASAT =      0 
   PSTTHETASAT =      0 
   LPRT =      0 
   NPRT =      0 
   PPRT =      0 
   LKT1 =      0 
   NKT1 =      0 
   PKT1 =      0 
   LTSS =      0 
   NTSS =      0 
   PTSS =      0 
   LIIT =      0 
   NIIT =      0 
   PIIT =      0 
   LTII =      0 
   NTII =      0 
   PTII =      0 
   LTGIDL =      0 
   NTGIDL =      0 
   PTGIDL =      0 
   LIGT =      0 
   NIGT =      0 
   PIGT =      0 
   Imin =  1e-15 
   K01 =      0 
   K0SI1 =      0 
   K1SI =      1 
   K1SI1 =      0 
   K11 =      0 
   K1SAT1 =      0 
   DELTAVSATCV =   0.28 
   PSATCV =      2 
   APSATCV =      0 
   BPSATCV =      1 
   A11 =      0 
   A21 =      0 
   AIGBINV1 =      0 
   AIGBACC1 =      0 
   AIGC1 =      0 
   AIGS1 =      0 
   AIGD1 =      0 
   TOXG = 2.1e-09 
   ALPHA01 =      0 
   ALPHA11 =      0 
   ALPHAII0 =      0 
   ALPHAII01 =      0 
   ALPHAII1 =      0 
   ALPHAII11 =      0 
   LK01 =      0 
   NK01 =      0 
   PK01 =      0 
   LK0SI1 =      0 
   NK0SI1 =      0 
   PK0SI1 =      0 
   LK1SI =      0 
   NK1SI =      0 
   PK1SI =      0 
   LK1SI1 =      0 
   NK1SI1 =      0 
   PK1SI1 =      0 
   LK11 =      0 
   NK11 =      0 
   PK11 =      0 
   LK1SAT1 =      0 
   NK1SAT1 =      0 
   PK1SAT1 =      0 
   LPSATCV =      0 
   NPSATCV =      0 
   PPSATCV =      0 
   LDELTAVSATCV =      0 
   NDELTAVSATCV =      0 
   PDELTAVSATCV =      0 
   LA11 =      0 
   NA11 =      0 
   PA11 =      0 
   LA21 =      0 
   NA21 =      0 
   PA21 =      0 
   LAIGBINV1 =      0 
   NAIGBINV1 =      0 
   PAIGBINV1 =      0 
   LAIGBACC1 =      0 
   NAIGBACC1 =      0 
   PAIGBACC1 =      0 
   LAIGC1 =      0 
   NAIGC1 =      0 
   PAIGC1 =      0 
   LAIGS1 =      0 
   NAIGS1 =      0 
   PAIGS1 =      0 
   LAIGD1 =      0 
   NAIGD1 =      0 
   PAIGD1 =      0 
   LALPHAII0 =      0 
   NALPHAII0 =      0 
   PALPHAII0 =      0 
   LALPHAII1 =      0 
   NALPHAII1 =      0 
   PALPHAII1 =      0 
   CGEO1SW = 0 
   NBODYN1 =      0 
   NBODYN2 =  1e+05 
   PHIGL =      0 
   PHIGN1 =      0 
   PHIGN2 =  1e+05 
   CDSCN1 =      0 
   CDSCN2 =  1e+05 
   CDSCDN1 =      0 
   CDSCDN2 =  1e+05 
   CDSCDRN1 =      0 
   CDSCDRN2 =  1e+05 
   DVT1SS =   0.48 
   ETA0N1 =      0 
   ETA0N2 =  1e+05 
   TETA0 =      0 
   TETA0R =      0 
   DVTP0 =      0 
   DVTP1 =      0 
   VSATN1 =      0 
   VSATN2 =  1e+05 
   VSAT1N1 =      0 
   VSAT1N2 =  1e+05 
   VSAT1RN1 =      0 
   VSAT1RN2 =  1e+05 
   MEXPR =      4 
   AMEXPR =      0 
   BMEXPR =      1 
   TMEXPR =      0 
   U0N1 =      0 
   U0N2 =  1e+05 
   CHARGEWF =      0 
   LDVT1SS =      0 
   NDVT1SS =      0 
   PDVT1SS =      0 
   LMEXPR =      0 
   NMEXPR =      0 
   PMEXPR =      0 
   Lmin =      0 m
   Lmax =      1 m
   NFINmin =      0 
   NFINmax =      1 
 Model Name: pmos_rvt 
 BSIM-MG BULK Model(Level72)
   VERSION =    107  
   L = 2.1e-08 
   D =  4e-08 
   TFIN = 6.5e-09 
   FPITCH = 2.7e-08 
   NF = 1 
   NFIN =      1 
   NGCON = 1 
   ASEO =      0 
   ADEO =      0 
   PSEO =      0 
   PDEO =      0 
   ASEJ =      0 
   ADEJ =      0 
   PSEJ =      0 
   PDEJ =      0 
   CGSP =      0 
   CGDP =      0 
   CDSP =      0 
   NRS =      0 
   NRD =      0 
   LRSD = 2.1e-08 
   XL =  1e-09 
   DTEMP =      0 
   DELVTRAND =      0 
   U0MULT =      1 
   IDS0MULT =      1 
   DEVTYPE = 0 
   BULKMOD = 1 
   COREMOD = 0 
   GEOMOD = 1 
   RDSMOD = 0 
   ASYMMOD = 0 
   IGCMOD = 1 
   IGBMOD = 0 
   GIDLMOD = 1 
   IIMOD = 0 
   NQSMOD = 0 
   SHMOD = 0 
   RGATEMOD = 0 
   RGEOMOD = 0 
   CGEOMOD = 0 
   CAPMOD = 0 
   LINT = -2.5e-09 
   LL =      0 
   LLN =      1 
   DLC =      0 
   DLCACC =      0 
   DLBIN =      0 
   LLC =      0 
   EOT =  1e-09 
   TOXP = 2.1e-09 
   EOTBOX = 1.4e-07 
   HFIN = 3.2e-08 
   FECH =      1 
   DELTAW =      0 
   FECHCV =      1 
   DELTAWCV =      0 
   NBODY =  1e+22 
   NSD =  2e+26 
   PHIG =  4.811 
   EPSROX =    3.9 
   EPSRSUB =   11.9 
   EASUB =   4.05 
   NI0SUB = 1.1e+16 
   BG0SUB =   1.17 
   NC0SUB = 2.86e+25 
   NGATE =      0 
   CIT =      0 
   CDSC = 0.003469 
   CDSCD = 0.001486 
   CDSCDR = 0.001486 
   DVT0 =   0.05 
   DVT1 =    0.4 
   PHIN =   0.05 
   ETA0 =   0.09 
   ETA0R =   0.09 
   DSUB =   0.24 
   K1RSCE =      0 
   LPE0 =      0 
   DVTSHIFT =      0 
   PHIBE =    0.7 
   K0 =      0 
   K0SI =      1 
   K1 =      0 
   K1SAT =      0 
   QMFACTOR =      0 
   QMTCENIV =      0 
   QMTCENCV =      0 
   QMTCENCVA =      0 
   AQMTCEN =      0 
   BQMTCEN = 1.2e-08 
   ETAQM =   0.54 
   QM0 = 2.183e-12 
   PQM =   0.66 
   QM0ACC =  0.001 
   PQMACC =   0.66 
   VSAT =  6e+04 
   AVSAT =      0 
   BVSAT =  1e-07 
   VSAT1 =  6e+04 
   VSAT1R =  6e+04 
   AVSAT1 =      0 
   BVSAT1 =  1e-07 
   DELTAVSAT =   0.22 
   PSAT =      2 
   APSAT =      0 
   BPSAT =      1 
   KSATIV =  1.592 
   VSATCV =  6e+04 
   AVSATCV =      0 
   BVSATCV =  1e-07 
   MEXP =  2.491 
   AMEXP =      0 
   BMEXP =      1 
   PTWG =     25 
   PTWGR =     25 
   APTWG =      0 
   BPTWG =  1e-07 
   AT =  0.001 
   TMEXP =      0 
   PTWGT =  0.004 
   U0 = 0.0209 
   ETAMOB =      4 
   UP =      0 
   LPA =      1 
   UA =  1.133 
   AUA =      0 
   BUA =  1e-07 
   UC =      0 
   EU =   0.05 
   AEU =      0 
   BEU =  1e-07 
   UD = 0.0105 
   AUD =      0 
   BUD =  5e-08 
   UCS = 0.2672 
   UTE =   -1.2 
   UTL =      0 
   EMOBT =      0 
   UA1 = 0.001032 
   UC1 = 5.6e-11 
   UD1 =      0 
   UCSTE = -0.004775 
   RDSWMIN =      0 
   RDSW =    200 
   ARDSW =      0 
   BRDSW =  1e-07 
   RSWMIN =      0 
   RSW =     50 
   ARSW =      0 
   BRSW =  1e-07 
   RDWMIN =      0 
   RDW =     50 
   ARDW =      0 
   BRDW =  1e-07 
   RSDR =      0 
   RSDRR =      0 
   RDDR =      0 
   RDDRR =      0 
   PRSDR =      1 
   PRDDR =      1 
   PRWGS =      0 
   PRWGD =      0 
   WR =      1 
   PRT =      0 
   TRSDR =      0 
   TRDDR =      0 
   PDIBL1 =    800 
   PDIBL1R =    800 
   PDIBL2 = 0.005704 
   DROUT =   4.97 
   PVAG =    200 
   PCLM =   0.01 
   APCLM =      0 
   BPCLM =  1e-07 
   PCLMG =      1 
   PCLMCV =   0.01 
   A1 =      0 
   A2 =      0 
   RGEXT =      0 
   RGFIN =  0.001 
   RSHS =      0 
   RSHD =      0 
   HEPI =  1e-08 
   TSILI =  1e-08 
   RHOC =  1e-12 
   RHORSD =      1 
   CRATIO =    0.5 
   DELTAPRSD =      0 
   SDTERM = 0 
   LSP = 4.4e-09 
   EPSRSP =    3.9 
   TGATE =  3e-08 
   TMASK =  3e-08 
   ASILIEND =      0 
   ARSDEND =      0 
   PRSDEND =      0 
   NSDE =  2e+25 
   RGEOA =      1 
   RGEOB =      0 
   RGEOC =      0 
   RGEOD =      0 
   RGEOE =      0 
   CGEOA =      1 
   CGEOB =      0 
   CGEOC =      0 
   CGEOD =      0 
   CGEOE =      1 
   AIGBINV = 0.0111 
   BIGBINV = 0.000949 
   CIGBINV =  0.006 
   EIGBINV =    1.1 
   NIGBINV =      3 
   AIGBACC = 0.0136 
   BIGBACC = 0.00171 
   CIGBACC =  0.075 
   NIGBACC =      1 
   AIGC =  0.007 
   BIGC = 0.0015 
   CIGC =      1 
   PIGCD =      1 
   DLCIGS =  5e-09 
   AIGS =  0.006 
   BIGS = 0.001944 
   CIGS =      1 
   DLCIGD =  5e-09 
   AIGD =  0.006 
   BIGD = 0.001944 
   CIGD =      1 
   TOXREF = 1.2e-09 
   NTOX =      1 
   POXEDGE =  1.152 
   AGISL =  2e-12 
   BGISL = 1.5e+08 
   CGISL =    0.5 
   EGISL =  1.142 
   PGISL =      1 
   AGIDL =  2e-12 
   BGIDL = 1.5e+08 
   CGIDL =    0.5 
   EGIDL =  1.142 
   PGIDL =      1 
   ALPHA0 =      0 
   ALPHA1 =      0 
   BETA0 =      0 
   BETAII0 =      0 
   BETAII1 =      0 
   BETAII2 =    0.1 
   ESATII =  1e+07 
   LII =  5e-10 
   SII0 =    0.5 
   SII1 =    0.1 
   SII2 =      0 
   SIID =      0 
   EOTACC =  3e-10 
   DELVFBACC =      0 
   CFS =      0 
   CFD =      0 
   COVS =      0 
   COVD =      0 
   CGSO = 1.6e-10 
   CGDO = 1.6e-10 
   CGSL =      0 
   CGDL =      0 
   CKAPPAS =    0.6 
   CKAPPAD =    0.6 
   CGBO =      0 
   CGBN =      0 
   CGBL =      0 
   CKAPPAB =    0.6 
   CSDESW =      0 
   CJS = 0.0005 
   CJD = 0.0005 
   CJSWS =  5e-10 
   CJSWD =  5e-10 
   CJSWGS =      0 
   CJSWGD =      0 
   PBS =      1 
   PBD =      1 
   PBSWS =      1 
   PBSWD =      1 
   PBSWGS =      1 
   PBSWGD =      1 
   MJS =    0.5 
   MJD =    0.5 
   MJSWS =   0.33 
   MJSWD =   0.33 
   MJSWGS =   0.33 
   MJSWGD =   0.33 
   SJS =      0 
   SJD =      0 
   SJSWS =      0 
   SJSWD =      0 
   SJSWGS =      0 
   SJSWGD =      0 
   MJS2 =  0.125 
   MJD2 =  0.125 
   MJSWS2 =  0.083 
   MJSWD2 =  0.083 
   MJSWGS2 =  0.083 
   MJSWGD2 =  0.083 
   JSS = 0.0001 
   JSD = 0.0001 
   JSWS =      0 
   JSWD =      0 
   JSWGS =      0 
   JSWGD =      0 
   NJS =      1 
   NJD =      1 
   IJTHSFWD =    0.1 
   IJTHDFWD =    0.1 
   IJTHSREV =    0.1 
   IJTHDREV =    0.1 
   BVS =     10 
   BVD =     10 
   XJBVS =      1 
   XJBVD =      1 
   JTSS =      0 
   JTSD =      0 
   JTSSWS =      0 
   JTSSWD =      0 
   JTSSWGS =      0 
   JTSSWGD =      0 
   JTWEFF =      0 
   NJTS =     20 
   NJTSD =     20 
   NJTSSW =     20 
   NJTSSWD =     20 
   NJTSSWG =     20 
   NJTSSWGD =     20 
   VTSS =     10 
   VTSD =     10 
   VTSSWS =     10 
   VTSSWD =     10 
   VTSSWGS =     10 
   VTSSWGD =     10 
   LINTIGEN =      0 
   NTGEN =      1 
   AIGEN =      0 
   BIGEN =      0 
   XRCRG1 =     12 
   XRCRG2 =      1 
   NSEG = 5 
   EF =      1 
   EM = 4.1e+07 
   NOIA = 6.25e+39 
   NOIB = 3.125e+24 
   NOIC = 8.75e+07 
   NTNOI =      1 
   TNOM =     25 
   TBGASUB = 0.000473 
   TBGBSUB =    636 
   KT1 =      0 
   KT1L =      0 
   TSS =      0 
   IIT =   -0.5 
   TII =      0 
   TGIDL = -0.007 
   IGT =    2.5 
   TCJ =      0 
   TCJSW =      0 
   TCJSWG =      0 
   TPB =      0 
   TPBSW =      0 
   TPBSWG =      0 
   XTIS =      3 
   XTID =      3 
   XTSS =   0.02 
   XTSD =   0.02 
   XTSSWS =   0.02 
   XTSSWD =   0.02 
   XTSSWGS =   0.02 
   XTSSWGD =   0.02 
   TNJTS =      0 
   TNJTSD =      0 
   TNJTSSW =      0 
   TNJTSSWD =      0 
   TNJTSSWG =      0 
   TNJTSSWGD =      0 
   RTH0 =   0.15 
   CTH0 = 1.243e-06 
   WTH0 = 2.6e-07 
   LNBODY =      0 
   NNBODY =      0 
   PNBODY =      0 
   LPHIG =      0 
   NPHIG =      0 
   PPHIG =      0 
   LNGATE =      0 
   NNGATE =      0 
   PNGATE =      0 
   LCIT =      0 
   NCIT =      0 
   PCIT =      0 
   LCDSC =      0 
   NCDSC =      0 
   PCDSC =      0 
   LCDSCD =      0 
   NCDSCD =      0 
   PCDSCD =      0 
   LCDSCDR =      0 
   NCDSCDR =      0 
   PCDSCDR =      0 
   LDVT0 =      0 
   NDVT0 =      0 
   PDVT0 =      0 
   LDVT1 =      0 
   NDVT1 =      0 
   PDVT1 =      0 
   LPHIN =      0 
   NPHIN =      0 
   PPHIN =      0 
   LETA0 =      0 
   NETA0 =      0 
   PETA0 =      0 
   LETA0R =      0 
   NETA0R =      0 
   PETA0R =      0 
   LDSUB =      0 
   NDSUB =      0 
   PDSUB =      0 
   LK1RSCE =      0 
   NK1RSCE =      0 
   PK1RSCE =      0 
   LLPE0 =      0 
   NLPE0 =      0 
   PLPE0 =      0 
   LDVTSHIFT =      0 
   NDVTSHIFT =      0 
   PDVTSHIFT =      0 
   LPHIBE =      0 
   NPHIBE =      0 
   PPHIBE =      0 
   LK0 =      0 
   NK0 =      0 
   PK0 =      0 
   LK0SI =      0 
   NK0SI =      0 
   PK0SI =      0 
   LK1 =      0 
   NK1 =      0 
   PK1 =      0 
   LK1SAT =      0 
   NK1SAT =      0 
   PK1SAT =      0 
   LDVTB =      0 
   NDVTB =      0 
   PDVTB =      0 
   LLPEB =      0 
   NLPEB =      0 
   PLPEB =      0 
   LQMFACTOR =      0 
   NQMFACTOR =      0 
   PQMFACTOR =      0 
   LQMTCENIV =      0 
   NQMTCENIV =      0 
   PQMTCENIV =      0 
   LQMTCENCV =      0 
   NQMTCENCV =      0 
   PQMTCENCV =      0 
   LQMTCENCVA =      0 
   NQMTCENCVA =      0 
   PQMTCENCVA =      0 
   LVSAT =   1441 
   NVSAT =      0 
   PVSAT =      0 
   LVSAT1 =   1441 
   NVSAT1 =      0 
   PVSAT1 =      0 
   LVSAT1R =   1441 
   NVSAT1R =      0 
   PVSAT1R =      0 
   LPSAT =      0 
   NPSAT =      0 
   PPSAT =      0 
   LDELTAVSAT =      0 
   NDELTAVSAT =      0 
   PDELTAVSAT =      0 
   LKSATIV =      0 
   NKSATIV =      0 
   PKSATIV =      0 
   LVSATCV =      0 
   NVSATCV =      0 
   PVSATCV =      0 
   LMEXP =      0 
   NMEXP =      0 
   PMEXP =      0 
   LPTWG =      0 
   NPTWG =      0 
   PPTWG =      0 
   LPTWGR =      0 
   NPTWGR =      0 
   PPTWGR =      0 
   LU0 =      0 
   NU0 =      0 
   PU0 =      0 
   LETAMOB =      0 
   NETAMOB =      0 
   PETAMOB =      0 
   LUP =      0 
   NUP =      0 
   PUP =      0 
   LUA =      0 
   NUA =      0 
   PUA =      0 
   LUC =      0 
   NUC =      0 
   PUC =      0 
   LEU =      0 
   NEU =      0 
   PEU =      0 
   LUD =      0 
   NUD =      0 
   PUD =      0 
   LUCS =      0 
   NUCS =      0 
   PUCS =      0 
   LPCLM =      0 
   NPCLM =      0 
   PPCLM =      0 
   LPCLMG =      0 
   NPCLMG =      0 
   PPCLMG =      0 
   LPCLMCV =      0 
   NPCLMCV =      0 
   PPCLMCV =      0 
   LA1 =      0 
   NA1 =      0 
   PA1 =      0 
   LA2 =      0 
   NA2 =      0 
   PA2 =      0 
   LRDSW =    1.3 
   NRDSW =      0 
   PRDSW =      0 
   LRSW =      0 
   NRSW =      0 
   PRSW =      0 
   LRDW =      0 
   NRDW =      0 
   PRDW =      0 
   LPRWGS =      0 
   NPRWGS =      0 
   PPRWGS =      0 
   LPRWGD =      0 
   NPRWGD =      0 
   PPRWGD =      0 
   LWR =      0 
   NWR =      0 
   PWR =      0 
   LPDIBL1 =      0 
   NPDIBL1 =      0 
   PPDIBL1 =      0 
   LPDIBL1R =      0 
   NPDIBL1R =      0 
   PPDIBL1R =      0 
   LPDIBL2 =      0 
   NPDIBL2 =      0 
   PPDIBL2 =      0 
   LDROUT =      0 
   NDROUT =      0 
   PDROUT =      0 
   LPVAG =      0 
   NPVAG =      0 
   PPVAG =      0 
   LAIGBINV =      0 
   NAIGBINV =      0 
   PAIGBINV =      0 
   LBIGBINV =      0 
   NBIGBINV =      0 
   PBIGBINV =      0 
   LCIGBINV =      0 
   NCIGBINV =      0 
   PCIGBINV =      0 
   LEIGBINV =      0 
   NEIGBINV =      0 
   PEIGBINV =      0 
   LNIGBINV =      0 
   NNIGBINV =      0 
   PNIGBINV =      0 
   LAIGBACC =      0 
   NAIGBACC =      0 
   PAIGBACC =      0 
   LBIGBACC =      0 
   NBIGBACC =      0 
   PBIGBACC =      0 
   LCIGBACC =      0 
   NCIGBACC =      0 
   PCIGBACC =      0 
   LNIGBACC =      0 
   NNIGBACC =      0 
   PNIGBACC =      0 
   LAIGC =      0 
   NAIGC =      0 
   PAIGC =      0 
   LBIGC =      0 
   NBIGC =      0 
   PBIGC =      0 
   LCIGC =      0 
   NCIGC =      0 
   PCIGC =      0 
   LPIGCD =      0 
   NPIGCD =      0 
   PPIGCD =      0 
   LAIGS =      0 
   NAIGS =      0 
   PAIGS =      0 
   LBIGS =      0 
   NBIGS =      0 
   PBIGS =      0 
   LCIGS =      0 
   NCIGS =      0 
   PCIGS =      0 
   LAIGD =      0 
   NAIGD =      0 
   PAIGD =      0 
   LBIGD =      0 
   NBIGD =      0 
   PBIGD =      0 
   LCIGD =      0 
   NCIGD =      0 
   PCIGD =      0 
   LNTOX =      0 
   NNTOX =      0 
   PNTOX =      0 
   LPOXEDGE =      0 
   NPOXEDGE =      0 
   PPOXEDGE =      0 
   LAGISL =      0 
   NAGISL =      0 
   PAGISL =      0 
   LBGISL =      0 
   NBGISL =      0 
   PBGISL =      0 
   LCGISL =      0 
   NCGISL =      0 
   PCGISL =      0 
   LEGISL =      0 
   NEGISL =      0 
   PEGISL =      0 
   LPGISL =      0 
   NPGISL =      0 
   PPGISL =      0 
   LAGIDL =      0 
   NAGIDL =      0 
   PAGIDL =      0 
   LBGIDL =      0 
   NBGIDL =      0 
   PBGIDL =      0 
   LCGIDL =      0 
   NCGIDL =      0 
   PCGIDL =      0 
   LEGIDL =      0 
   NEGIDL =      0 
   PEGIDL =      0 
   LPGIDL =      0 
   NPGIDL =      0 
   PPGIDL =      0 
   LALPHA0 =      0 
   NALPHA0 =      0 
   PALPHA0 =      0 
   LALPHA1 =      0 
   NALPHA1 =      0 
   PALPHA1 =      0 
   LBETA0 =      0 
   NBETA0 =      0 
   PBETA0 =      0 
   LBETAII0 =      0 
   NBETAII0 =      0 
   PBETAII0 =      0 
   LBETAII1 =      0 
   NBETAII1 =      0 
   PBETAII1 =      0 
   LBETAII2 =      0 
   NBETAII2 =      0 
   PBETAII2 =      0 
   LESATII =      0 
   NESATII =      0 
   PESATII =      0 
   LLII =      0 
   NLII =      0 
   PLII =      0 
   LSII0 =      0 
   NSII0 =      0 
   PSII0 =      0 
   LSII1 =      0 
   NSII1 =      0 
   PSII1 =      0 
   LSII2 =      0 
   NSII2 =      0 
   PSII2 =      0 
   LSIID =      0 
   NSIID =      0 
   PSIID =      0 
   LCFS =      0 
   NCFS =      0 
   PCFS =      0 
   LCFD =      0 
   NCFD =      0 
   PCFD =      0 
   LCOVS =      0 
   NCOVS =      0 
   PCOVS =      0 
   LCOVD =      0 
   NCOVD =      0 
   PCOVD =      0 
   LCGSL =      0 
   NCGSL =      0 
   PCGSL =      0 
   LCGDL =      0 
   NCGDL =      0 
   PCGDL =      0 
   LCKAPPAS =      0 
   NCKAPPAS =      0 
   PCKAPPAS =      0 
   LCKAPPAD =      0 
   NCKAPPAD =      0 
   PCKAPPAD =      0 
   LCGBL =      0 
   NCGBL =      0 
   PCGBL =      0 
   LCKAPPAB =      0 
   NCKAPPAB =      0 
   PCKAPPAB =      0 
   LNTGEN =      0 
   NNTGEN =      0 
   PNTGEN =      0 
   LAIGEN =      0 
   NAIGEN =      0 
   PAIGEN =      0 
   LBIGEN =      0 
   NBIGEN =      0 
   PBIGEN =      0 
   LXRCRG1 =      0 
   NXRCRG1 =      0 
   PXRCRG1 =      0 
   LXRCRG2 =      0 
   NXRCRG2 =      0 
   PXRCRG2 =      0 
   LINTNOI =      0 
   LUTE =      0 
   NUTE =      0 
   PUTE =      0 
   LUTL =      0 
   NUTL =      0 
   PUTL =      0 
   LEMOBT =      0 
   NEMOBT =      0 
   PEMOBT =      0 
   LUA1 =      0 
   NUA1 =      0 
   PUA1 =      0 
   LUC1 =      0 
   NUC1 =      0 
   PUC1 =      0 
   LUD1 =      0 
   NUD1 =      0 
   PUD1 =      0 
   LUCSTE =      0 
   NUCSTE =      0 
   PUCSTE =      0 
   LPTWGT =      0 
   NPTWGT =      0 
   PPTWGT =      0 
   LAT =      0 
   NAT =      0 
   PAT =      0 
   LSTTHETASAT =      0 
   NSTTHETASAT =      0 
   PSTTHETASAT =      0 
   LPRT =      0 
   NPRT =      0 
   PPRT =      0 
   LKT1 =      0 
   NKT1 =      0 
   PKT1 =      0 
   LTSS =      0 
   NTSS =      0 
   PTSS =      0 
   LIIT =      0 
   NIIT =      0 
   PIIT =      0 
   LTII =      0 
   NTII =      0 
   PTII =      0 
   LTGIDL =      0 
   NTGIDL =      0 
   PTGIDL =      0 
   LIGT =      0 
   NIGT =      0 
   PIGT =      0 
   Imin =  1e-15 
   K01 =      0 
   K0SI1 =      0 
   K1SI =      1 
   K1SI1 =      0 
   K11 =      0 
   K1SAT1 =      0 
   DELTAVSATCV =   0.22 
   PSATCV =      2 
   APSATCV =      0 
   BPSATCV =      1 
   A11 =      0 
   A21 =      0 
   AIGBINV1 =      0 
   AIGBACC1 =      0 
   AIGC1 =      0 
   AIGS1 =      0 
   AIGD1 =      0 
   TOXG = 2.1e-09 
   ALPHA01 =      0 
   ALPHA11 =      0 
   ALPHAII0 =      0 
   ALPHAII01 =      0 
   ALPHAII1 =      0 
   ALPHAII11 =      0 
   LK01 =      0 
   NK01 =      0 
   PK01 =      0 
   LK0SI1 =      0 
   NK0SI1 =      0 
   PK0SI1 =      0 
   LK1SI =      0 
   NK1SI =      0 
   PK1SI =      0 
   LK1SI1 =      0 
   NK1SI1 =      0 
   PK1SI1 =      0 
   LK11 =      0 
   NK11 =      0 
   PK11 =      0 
   LK1SAT1 =      0 
   NK1SAT1 =      0 
   PK1SAT1 =      0 
   LPSATCV =      0 
   NPSATCV =      0 
   PPSATCV =      0 
   LDELTAVSATCV =      0 
   NDELTAVSATCV =      0 
   PDELTAVSATCV =      0 
   LA11 =      0 
   NA11 =      0 
   PA11 =      0 
   LA21 =      0 
   NA21 =      0 
   PA21 =      0 
   LAIGBINV1 =      0 
   NAIGBINV1 =      0 
   PAIGBINV1 =      0 
   LAIGBACC1 =      0 
   NAIGBACC1 =      0 
   PAIGBACC1 =      0 
   LAIGC1 =      0 
   NAIGC1 =      0 
   PAIGC1 =      0 
   LAIGS1 =      0 
   NAIGS1 =      0 
   PAIGS1 =      0 
   LAIGD1 =      0 
   NAIGD1 =      0 
   PAIGD1 =      0 
   LALPHAII0 =      0 
   NALPHAII0 =      0 
   PALPHAII0 =      0 
   LALPHAII1 =      0 
   NALPHAII1 =      0 
   PALPHAII1 =      0 
   CGEO1SW = 0 
   NBODYN1 =      0 
   NBODYN2 =  1e+05 
   PHIGL =      0 
   PHIGN1 =      0 
   PHIGN2 =  1e+05 
   CDSCN1 =      0 
   CDSCN2 =  1e+05 
   CDSCDN1 =      0 
   CDSCDN2 =  1e+05 
   CDSCDRN1 =      0 
   CDSCDRN2 =  1e+05 
   DVT1SS =    0.4 
   ETA0N1 =      0 
   ETA0N2 =  1e+05 
   TETA0 =      0 
   TETA0R =      0 
   DVTP0 =      0 
   DVTP1 =      0 
   VSATN1 =      0 
   VSATN2 =  1e+05 
   VSAT1N1 =      0 
   VSAT1N2 =  1e+05 
   VSAT1RN1 =      0 
   VSAT1RN2 =  1e+05 
   MEXPR =  2.491 
   AMEXPR =      0 
   BMEXPR =      1 
   TMEXPR =      0 
   U0N1 =      0 
   U0N2 =  1e+05 
   CHARGEWF =      0 
   LDVT1SS =      0 
   NDVT1SS =      0 
   PDVT1SS =      0 
   LMEXPR =      0 
   NMEXPR =      0 
   PMEXPR =      0 
   Lmin =      0 m
   Lmax =      1 m
   NFINmin =      0 
   NFINmax =      1 
  **info** (8tser.txt:34) DC voltage reset to initial transient source value              in source        0:vbit                new dc=  0.0000D+00
  
      
 **info** set option symb=1 internally to help for convergence.
 *****************************************************************
 ******  option summary
 ******
 runlvl  = 3         bypass  = 2         
  Opening plot unit= 15
 file=8tser.pa0

1****** HSPICE -- H-2013.03-SP1 32-BIT (May 29 2013) RHEL32 ******              
 ******  
 '8t-ser 0.5ghz'

  ******  operating point information tnom=  25.000 temp=  25.000 *****
 ***** operating point status is voltage   simulation time is     0.     
    node    =voltage      node    =voltage      node    =voltage

 +0:bit     =   0.      0:bl      =  23.9171m 0:blb     =  61.2720m
 +0:out     =  23.9169m 0:outb    =  61.2719m 0:pre     = 700.0000m
 +0:q       = 699.9998m 0:q2      = 700.0000m 0:q2b     = 100.5151n
 +0:qb      = 115.7175n 0:sae     = 700.0000m 0:vdd     = 700.0000m
 +0:we      = 700.0000m 0:wl      =   0.      2:bitb    = 699.9998m
 +2:web     = 115.7344n 2:xe1     =  11.8821m 2:xe2     = 318.4830m
 +3:xsa1    =  66.9170m

 ******  
 '8t-ser 0.5ghz'

  ******  transient analysis tnom=  25.000 temp=  25.000 *****
x

        time    voltage      voltage      voltage      voltage    
                     q           qb           q2           q2b    
    0.          699.9998m      0.         700.0000m      0.       
   10.00000p    701.5192m    -79.2194u    700.5250m     88.0152m  
   20.00000p    700.3900m     12.8712u    700.1690m     93.9789m  
   30.00000p    700.1825m      1.3338u    700.0787m     96.2925m  
   40.00000p    700.0572m    -45.9893u    700.0106m     97.6265m  
   50.00000p    700.0402m      3.0346u    700.0183m     98.0257m  
   60.00000p    700.0232m     52.0586u    700.0259m     98.4249m  
   70.00000p    700.0108m     29.6576u    700.0136m     98.4830m  
   80.00000p    699.9991m     -4.8118u    699.9980m     98.4835m  
   90.00000p    699.9875m    -39.2812u    699.9823m     98.4840m  
  100.00000p    699.9852m    -45.7383u    699.9794m     98.4869m  
  110.00000p    699.9924m    -23.6726u    699.9894m     98.4922m  
  120.00000p    699.9996m     -1.6068u    699.9995m     98.4975m  
  130.00000p    700.0068m     20.4590u    700.0096m     98.5027m  
  140.00000p    700.0140m     42.5247u    700.0196m     98.5080m  
  150.00000p    700.0166m     50.6171u    700.0233m     98.5102m  
  160.00000p    700.0128m     39.0885u    700.0180m     98.5081m  
  170.00000p    700.0089m     27.5598u    700.0126m     98.5060m  
  180.00000p    700.0050m     16.0311u    700.0073m     98.5038m  
  190.00000p    700.0011m      4.5024u    700.0020m     98.5017m  
  200.00000p    699.9973m     -7.0262u    699.9966m     98.4996m  
  210.00000p    699.9934m    -18.5549u    699.9913m     98.4974m  
  220.00000p    699.9895m    -30.0836u    699.9860m     98.4953m  
  230.00000p    699.9857m    -41.6122u    699.9806m     98.4932m  
  240.00000p    699.9818m    -53.1409u    699.9753m     98.4910m  
  250.00000p    699.9887m    -32.9664u    699.9847m     98.4948m  
  260.00000p    699.9969m     -8.8882u    699.9959m     98.4994m  
  270.00000p    700.0051m     15.1900u    700.0071m     98.5039m  
  280.00000p    700.0134m     39.2683u    700.0183m     98.5085m  
  290.00000p    703.2789m    362.3929u    701.6724m    109.8046m  
  300.00000p    722.8585m    156.7241u    711.4054m    247.0452m  
  310.00000p    730.8204m    505.6108u    716.5900m    384.7380m  
  320.00000p    739.1425m    -16.8277u    722.6383m    461.8535m  
  330.00000p    738.7855m    -23.8708u    723.2134m    485.8884m  
  340.00000p    737.7079m    -51.3859u    723.2450m    499.9164m  
  350.00000p    736.6946m    -25.7508u    723.1003m    508.4983m  
  360.00000p    735.7477m    -45.9827u    722.8940m    515.0485m  
  370.00000p    734.8911m     -3.7095u    722.6918m    520.1353m  
  380.00000p    734.1928m    -15.6620u    722.4765m    523.8795m  
  390.00000p    733.5069m    -31.8787u    722.2603m    527.5180m  
  400.00000p    732.9076m    -32.6731u    722.0625m    530.5687m  
  410.00000p    732.3929m    -18.3708u    721.8828m    533.0438m  
  420.00000p    731.8782m     -4.0684u    721.7031m    535.5190m  
  430.00000p    731.3962m      6.2446u    721.5294m    537.8258m  
  440.00000p    731.0472m      0.         721.3804m    539.4487m  
  450.00000p    730.6982m     -5.5648u    721.2313m    541.0715m  
  460.00000p    730.3492m    -11.4696u    721.0822m    542.6943m  
  470.00000p    730.0002m    -17.3743u    720.9331m    544.3171m  
  480.00000p    729.6512m    -23.2790u    720.7841m    545.9399m  
  490.00000p    729.3044m    -28.9742u    720.6358m    547.5525m  
  500.00000p    729.0721m    -23.4914u    720.5291m    548.6161m  
  510.00000p    728.8398m    -18.0085u    720.4223m    549.6797m  
  520.00000p    728.6074m    -12.5256u    720.3156m    550.7433m  
  530.00000p    728.3751m     -7.0427u    720.2089m    551.8069m  
  540.00000p    728.1428m     -1.5598u    720.1022m    552.8705m  
  550.00000p    727.9105m      3.9231u    719.9954m    553.9341m  
  560.00000p    727.6782m      9.4060u    719.8887m    554.9977m  
  570.00000p    727.4586m     13.5359u    719.7861m    556.0069m  
  580.00000p    727.3088m     10.2585u    719.7062m    556.7183m  
  590.00000p    727.1590m      6.9811u    719.6264m    557.4297m  
  600.00000p    727.0093m      3.7038u    719.5465m    558.1411m  
  610.00000p    726.8595m      0.         719.4666m    558.8525m  
  620.00000p    726.7097m     -2.8509u    719.3867m    559.5640m  
  630.00000p    726.5600m     -6.1283u    719.3068m    560.2754m  
  640.00000p    726.4102m     -9.4056u    719.2269m    560.9868m  
  650.00000p    726.2604m    -12.6830u    719.1470m    561.6982m  
  660.00000p    726.1107m    -15.9604u    719.0671m    562.4096m  
  670.00000p    725.9609m    -19.2377u    718.9873m    563.1211m  
  680.00000p    725.8111m    -22.5151u    718.9074m    563.8325m  
  690.00000p    725.6928m    -22.1224u    718.8438m    564.4007m  
  700.00000p    725.5912m    -19.7848u    718.7887m    564.8930m  
  710.00000p    725.4895m    -17.4473u    718.7337m    565.3853m  
  720.00000p    725.3879m    -15.1098u    718.6787m    565.8776m  
  730.00000p    725.2863m    -12.7723u    718.6237m    566.3700m  
  740.00000p    725.1846m    -10.4347u    718.5687m    566.8623m  
  750.00000p    725.0830m     -8.0972u    718.5137m    567.3546m  
  760.00000p    724.9814m     -5.7597u    718.4587m    567.8469m  
  770.00000p    724.8797m     -3.4222u    718.4037m    568.3392m  
  780.00000p    724.7781m     -1.0846u    718.3487m    568.8316m  
  790.00000p    724.6765m      1.2529u    718.2937m    569.3239m  
  800.00000p    724.5748m      3.5904u    718.2387m    569.8162m  
  810.00000p    724.4732m      5.9279u    718.1837m    570.3085m  
  820.00000p    724.3715m      8.2655u    718.1287m    570.8008m  
  830.00000p    724.2699m     10.6030u    718.0737m    571.2932m  
  840.00000p    724.1683m     12.9405u    718.0186m    571.7855m  
  850.00000p    724.0666m     15.2781u    717.9636m    572.2778m  
  860.00000p    799.7219m     93.9614m    762.6587m    613.3990m  
  870.00000p      1.0145     422.0211m    700.9750m    690.7527m  
  880.00000p      1.0100     686.3423m     51.7654m    689.9152m  
  890.00000p    967.8211m    698.3976m      9.7754m    698.7000m  
  900.00000p    947.2454m    699.3867m      2.9354m    699.4692m  
  910.00000p    934.8775m    699.6951m    948.5438u    699.7032m  
  920.00000p    925.5159m    699.8386m    136.7445u    699.8169m  
  930.00000p    918.8376m    699.8820m     63.1768u    699.8661m  
  940.00000p    912.9243m    699.9146m     13.0571u    699.9029m  
  950.00000p    908.7696m    699.9220m     16.8428u    699.9112m  
  960.00000p    904.6149m    699.9295m     20.6285u    699.9195m  
  970.00000p    900.8760m    699.9369m     23.1880u    699.9280m  
  980.00000p    898.2408m    699.9441m     22.4916u    699.9370m  
  990.00000p    895.6055m    699.9513m     21.7952u    699.9460m  
    1.00000n    892.9703m    699.9586m     21.0989u    699.9550m  
    1.01000n    890.3351m    699.9658m     20.4025u    699.9639m  
    1.02000n    888.4076m    699.9680m     19.7431u    699.9663m  
    1.03000n    886.7227m    699.9685m     19.0963u    699.9663m  
    1.04000n    885.0378m    699.9689m     18.4495u    699.9664m  
    1.05000n    883.3528m    699.9694m     17.8027u    699.9665m  
    1.06000n    881.6679m    699.9699m     17.1559u    699.9665m  
    1.07000n    879.9830m    699.9704m     16.5091u    699.9666m  
    1.08000n    878.2981m    699.9709m     15.8623u    699.9667m  
    1.09000n    876.9680m    699.9728m     15.9041u    699.9690m  
    1.10000n    875.8135m    699.9754m     16.2868u    699.9726m  
    1.11000n    874.6591m    699.9780m     16.6696u    699.9761m  
    1.12000n    873.5046m    699.9807m     17.0523u    699.9796m  
    1.13000n    872.3501m    699.9833m     17.4351u    699.9831m  
    1.14000n    871.1957m    699.9859m     17.8178u    699.9866m  
    1.15000n    807.2668m    680.4057m     -3.5238m    697.3198m  
    1.16000n    144.8473m    660.5772m      1.5287m    682.5001m  
    1.17000n    114.5551u    699.3588m      1.7567m    699.7670m  
    1.18000n      4.2557u    699.9607m    346.6295u    699.9747m  
    1.19000n     -2.1787u    699.9940m     96.5093u    700.0080m  
    1.20000n      0.         699.9957m     40.8519u    699.9964m  
    1.21000n      2.3485u    699.9974m     -2.6842u    699.9882m  
    1.22000n      1.3479u    699.9987m      4.0281u    699.9939m  
    1.23000n      0.         700.0001m     10.7403u    699.9995m  
    1.24000n   -653.3697n    700.0014m     17.4526u    700.0052m  
    1.25000n     -1.6540u    700.0028m     24.1648u    700.0109m  
    1.26000n     -1.6445u    700.0026m     24.2841u    700.0107m  
    1.27000n     -1.2296u    700.0019m     21.7578u    700.0081m  
    1.28000n   -814.7333n    700.0012m     19.2315u    700.0055m  
    1.29000n      0.         700.0005m     16.7052u    700.0029m  
    1.30000n      0.         699.9998m     14.1789u    700.0004m  
    1.31000n      0.         699.9991m     11.6526u    699.9978m  
    1.32000n    844.7527n    699.9984m      9.1262u    699.9952m  
    1.33000n      1.2596u    699.9977m      6.5999u    699.9926m  
    1.34000n      1.6745u    699.9970m      4.0736u    699.9901m  
    1.35000n      2.0632u    699.9963m      1.6971u    699.9877m  
    1.36000n      1.8884u    699.9966m      2.5508u    699.9888m  
    1.37000n      1.7135u    699.9970m      3.4045u    699.9899m  
    1.38000n      1.5387u    699.9973m      4.2583u    699.9910m  
    1.39000n      1.3638u    699.9976m      5.1120u    699.9922m  
    1.40000n      1.1890u    699.9979m      5.9657u    699.9933m  
    1.41000n      1.0141u    699.9983m      6.8194u    699.9944m  
    1.42000n    839.2837n    699.9986m      7.6731u    699.9956m  
    1.43000n    664.4337n    699.9989m      8.5269u    699.9967m  
    1.44000n      0.         699.9992m      9.3806u    699.9978m  
    1.45000n      0.         699.9996m     10.2343u    699.9989m  
    1.46000n      0.         699.9999m     11.0880u    700.0001m  
    1.47000n      0.         700.0002m     11.9418u    700.0012m  
    1.48000n      0.         700.0005m     12.7955u    700.0023m  
    1.49000n      0.         700.0008m     13.6492u    700.0034m  
    1.50000n   -559.5163n    700.0012m     14.5029u    700.0046m  
    1.51000n   -734.3663n    700.0015m     15.3566u    700.0057m  
    1.52000n   -909.2162n    700.0018m     16.2104u    700.0068m  
    1.53000n     -1.0841u    700.0021m     17.0641u    700.0080m  
    1.54000n     -1.2589u    700.0025m     17.9178u    700.0091m  
    1.55000n     -1.4338u    700.0028m     18.7715u    700.0102m  
    1.56000n     -1.6086u    700.0031m     19.6252u    700.0113m  
    1.57000n     -1.7035u    700.0033m     20.0512u    700.0119m  
    1.58000n     -1.4539u    700.0028m     18.6353u    700.0103m  
    1.59000n     -1.2042u    700.0023m     17.2194u    700.0086m  
    1.60000n   -954.6380n    700.0018m     15.8034u    700.0069m  
    1.61000n   -705.0284n    700.0013m     14.3875u    700.0053m  
    1.62000n      0.         700.0008m     12.9716u    700.0036m  
    1.63000n      0.         700.0003m     11.5557u    700.0019m  
    1.64000n      0.         699.9998m     10.1398u    700.0002m  
    1.65000n      0.         699.9993m      8.7239u    699.9986m  
    1.66000n    543.0196n    699.9989m      7.3079u    699.9969m  
    1.67000n    792.6292n    699.9984m      5.8920u    699.9952m  
    1.68000n      1.0422u    699.9979m      4.4761u    699.9936m  
    1.69000n      1.2918u    699.9974m      3.0602u    699.9919m  
    1.70000n      1.5415u    699.9969m      1.6443u    699.9902m  
    1.71000n      1.7911u    699.9964m      0.         699.9885m  
    1.72000n     -8.2548u    700.3570m      3.4025m    700.1516m  
    1.73000n     -4.1240m    704.8220m     36.1645m    702.3432m  
    1.74000n    -39.8386u    699.8926m     49.2677m    699.9585m  
    1.75000n   -150.2306u    699.9348m     48.9342m    699.9635m  
    1.76000n   -137.6045u    699.7015m     46.5471m    699.8650m  
    1.77000n    -55.5037u    699.6489m     42.7850m    699.8412m  
    1.78000n    -25.5068u    699.8156m     40.5301m    699.9215m  
    1.79000n     -6.5313u    699.9315m     38.8282m    699.9742m  
    1.80000n     -8.3182u    699.9515m     38.1681m    699.9747m  
    1.81000n     -2.3696u    699.9765m     37.8632m    699.9882m  
    1.82000n      6.4955u    700.0034m     37.6920m    700.0066m  
    1.83000n      2.7940u    700.0024m     37.6530m    700.0035m  
    1.84000n     -3.3113u    699.9960m     37.6393m    699.9963m  
    1.85000n     -8.0636u    699.9910m     37.6272m    699.9906m  
    1.86000n     -4.5704u    699.9945m     37.6247m    699.9944m  
    1.87000n     -1.0772u    699.9980m     37.6222m    699.9982m  
    1.88000n      2.4161u    700.0015m     37.6197m    700.0020m  
    1.89000n      5.9093u    700.0050m     37.6172m    700.0058m  
    1.90000n      8.8546u    700.0079m     37.6151m    700.0090m  
    1.91000n      7.0776u    700.0063m     37.6164m    700.0072m  
    1.92000n      5.3007u    700.0047m     37.6178m    700.0054m  
    1.93000n      3.5237u    700.0031m     37.6191m    700.0036m  
    1.94000n      1.7468u    700.0015m     37.6204m    700.0018m  
    1.95000n      0.         699.9999m     37.6217m    699.9999m  
    1.96000n     -1.8071u    699.9983m     37.6231m    699.9981m  
    1.97000n     -3.5841u    699.9967m     37.6244m    699.9963m  
    1.98000n     -5.3610u    699.9950m     37.6257m    699.9945m  
    1.99000n     -7.1380u    699.9934m     37.6270m    699.9927m  
    2.00000n     -8.9150u    699.9918m     37.6284m    699.9909m  
    2.01000n    -63.4161u    699.8561m     28.7209m    699.9671m  
    2.02000n   -113.6724u    698.2374m     16.5352m    699.2072m  
    2.03000n    -44.4087u    699.4730m      8.1677m    699.7747m  
    2.04000n    -11.6855u    699.7359m      4.0443m    699.8838m  
    2.05000n     -9.9759u    699.8659m      1.9914m    699.9430m  
    2.06000n     -5.4749u    699.9439m    795.7395u    699.9769m  
    2.07000n      1.4842u    699.9762m    355.0086u    699.9887m  
    2.08000n      4.0696u    699.9958m     79.1135u    699.9964m  
    2.09000n      0.         699.9967m     45.1346u    699.9984m  
    2.10000n     -3.5968u    699.9976m     11.1557u    700.0003m  
    2.11000n     -4.1871u    699.9986m     -4.6385u    700.0009m  
    2.12000n     -1.6284u    699.9995m     -2.7747u    700.0003m  
    2.13000n    930.3755n    700.0004m   -910.7906n    699.9998m  
    2.14000n      3.4891u    700.0013m    953.0691n    699.9992m  
    2.15000n      5.3533u    700.0020m      2.4961u    699.9988m  
    2.16000n      4.1468u    700.0015m      2.6207u    699.9990m  
    2.17000n      2.9403u    700.0010m      2.7453u    699.9993m  
    2.18000n      1.7338u    700.0005m      2.8699u    699.9995m  
    2.19000n    527.2685n    700.0000m      2.9945u    699.9997m  
    2.20000n   -679.2500n    699.9995m      3.1191u    699.9999m  
    2.21000n     -1.8858u    699.9989m      3.2437u    700.0002m  
    2.22000n     -3.0923u    699.9984m      3.3684u    700.0004m  
    2.23000n     -4.2988u    699.9979m      3.4930u    700.0006m  
    2.24000n     -5.0816u    699.9976m      3.5069u    700.0008m  
    2.25000n     -2.7799u    699.9986m      2.7149u    700.0004m  
    2.26000n      0.         699.9996m      1.9229u    699.9999m  
    2.27000n      1.8234u    700.0006m      1.1309u    699.9995m  
    2.28000n      4.1251u    700.0016m      0.         699.9991m  
    2.29000n    -24.4697u    698.8774m     -7.3153m    699.4798m  
    2.30000n   -152.2909u    699.4236m    -14.6933m    699.7242m  
    2.31000n    -68.8891u    700.1625m    -15.4470m    700.0658m  
    2.32000n    -22.3348u    699.9903m    -15.1980m    700.0006m  
    2.33000n      2.5263u    700.0015m    -15.1977m    700.0003m  
    2.34000n     25.3320u    700.0113m    -15.1975m    699.9993m  
    2.35000n     10.5882u    700.0046m    -15.1932m    699.9995m  
    2.36000n     -4.1556u    699.9979m    -15.1888m    699.9996m  
    2.37000n    -18.8994u    699.9911m    -15.1844m    699.9997m  
    2.38000n    -26.2891u    699.9878m    -15.1809m    699.9997m  
    2.39000n    -20.5144u    699.9904m    -15.1791m    699.9998m  
    2.40000n    -14.7397u    699.9931m    -15.1773m    699.9998m  
    2.41000n     -8.9651u    699.9958m    -15.1755m    699.9998m  
    2.42000n     -3.1904u    699.9985m    -15.1736m    699.9998m  
    2.43000n      2.5843u    700.0012m    -15.1718m    699.9998m  
    2.44000n      8.3590u    700.0039m    -15.1700m    699.9998m  
    2.45000n     14.1337u    700.0066m    -15.1682m    699.9998m  
    2.46000n     19.9084u    700.0093m    -15.1663m    699.9998m  
    2.47000n     25.6831u    700.0120m    -15.1645m    699.9999m  
    2.48000n     26.6750u    700.0124m    -15.1624m    699.9999m  
    2.49000n     23.9867u    700.0112m    -15.1601m    699.9998m  
    2.50000n     21.2985u    700.0099m    -15.1579m    699.9998m  
    2.51000n     18.6102u    700.0086m    -15.1556m    699.9998m  
    2.52000n     15.9220u    700.0074m    -15.1533m    699.9998m  
    2.53000n     13.2337u    700.0061m    -15.1510m    699.9998m  
    2.54000n     10.5455u    700.0049m    -15.1487m    699.9997m  
    2.55000n      7.8572u    700.0036m    -15.1464m    699.9997m  
    2.56000n      5.1690u    700.0023m    -15.1442m    699.9997m  
    2.57000n      2.4807u    700.0011m    -15.1419m    699.9997m  
    2.58000n      0.         699.9998m    -15.1396m    699.9997m  
    2.59000n     -2.8958u    699.9985m    -15.1373m    699.9997m  
    2.60000n     -5.5840u    699.9973m    -15.1350m    699.9996m  
    2.61000n     -8.2723u    699.9960m    -15.1327m    699.9996m  
    2.62000n    -10.9605u    699.9947m    -15.1305m    699.9996m  
    2.63000n    -13.6488u    699.9935m    -15.1282m    699.9996m  
    2.64000n    -16.3370u    699.9922m    -15.1259m    699.9996m  
    2.65000n    -19.0253u    699.9909m    -15.1236m    699.9995m  
    2.66000n    -21.7135u    699.9897m    -15.1213m    699.9995m  
    2.67000n    -24.4018u    699.9884m    -15.1190m    699.9995m  
    2.68000n    -27.0900u    699.9871m    -15.1167m    699.9995m  
    2.69000n    -25.3036u    699.9880m    -15.1152m    699.9995m  
    2.70000n    -22.1295u    699.9895m    -15.1140m    699.9995m  
    2.71000n    -18.9554u    699.9910m    -15.1127m    699.9996m  
    2.72000n    -15.7812u    699.9925m    -15.1114m    699.9996m  
    2.73000n    -12.6071u    699.9940m    -15.1101m    699.9996m  
    2.74000n     -9.4330u    699.9955m    -15.1089m    699.9997m  
    2.75000n     -6.2588u    699.9970m    -15.1076m    699.9997m  
    2.76000n     -3.0847u    699.9985m    -15.1063m    699.9997m  
    2.77000n      0.         700.0000m    -15.1050m    699.9998m  
    2.78000n      3.2636u    700.0015m    -15.1037m    699.9998m  
    2.79000n      6.4377u    700.0030m    -15.1025m    699.9998m  
    2.80000n      9.6118u    700.0045m    -15.1012m    699.9999m  
    2.81000n     12.7860u    700.0059m    -15.0999m    699.9999m  
    2.82000n     15.9601u    700.0074m    -15.0986m    699.9999m  
    2.83000n     19.1343u    700.0089m    -15.0974m    700.0000m  
    2.84000n     22.3084u    700.0104m    -15.0961m    700.0000m  
    2.85000n     25.4825u    700.0119m    -15.0948m    700.0001m  
    2.86000n     86.2800m    714.0572m    -11.6826m    704.7193m  
    2.87000n    362.6998m    710.3828m    -17.1275m    681.8472m  
    2.88000n    461.4660m    701.2072m    -15.5310m    655.7805m  
    2.89000n    482.5595m    700.4630m    -12.9163m    664.7919m  
    2.90000n    496.5218m    700.3429m    -11.6060m    671.7782m  
    2.91000n    508.3799m    700.2516m    -10.4488m    677.7752m  
    2.92000n    515.5995m    700.2080m     -9.6485m    681.3843m  
    2.93000n    522.8191m    700.1645m     -8.8481m    684.9933m  
    2.94000n    528.4847m    700.1338m     -8.1628m    687.6618m  
    2.95000n    532.2791m    700.1186m     -7.6160m    689.1976m  
    2.96000n    536.0734m    700.1034m     -7.0691m    690.7335m  
    2.97000n    539.8678m    700.0882m     -6.5223m    692.2693m  
    2.98000n    542.1230m    700.0825m     -6.0494m    693.0160m  
    2.99000n    544.2547m    700.0775m     -5.5825m    693.6994m  
    3.00000n    546.3864m    700.0725m     -5.1155m    694.3828m  
    3.01000n    548.5181m    700.0675m     -4.6485m    695.0661m  
    3.02000n    550.0567m    700.0631m     -4.2490m    695.4660m  
    3.03000n    551.3825m    700.0588m     -3.8736m    695.7643m  
    3.04000n    552.7084m    700.0546m     -3.4983m    696.0625m  
    3.05000n    554.0342m    700.0503m     -3.1229m    696.3607m  
    3.06000n    555.3600m    700.0461m     -2.7476m    696.6590m  
    3.07000n    556.5383m    700.0427m     -2.4097m    696.9101m  
    3.08000n    557.4300m    700.0410m     -2.1447m    697.0696m  
    3.09000n    558.3217m    700.0393m     -1.8797m    697.2291m  
    3.10000n    559.2134m    700.0376m     -1.6147m    697.3887m  
    3.11000n    560.1050m    700.0359m     -1.3497m    697.5482m  
    3.12000n    560.9967m    700.0342m     -1.0847m    697.7078m  
    3.13000n    561.8884m    700.0326m   -819.7097u    697.8673m  
    3.14000n    562.6049m    700.0269m   -618.5376u    697.9295m  
    3.15000n    510.0273m    693.8062m    -15.3218m    696.6301m  
    3.16000n    119.3741m    677.7802m    -35.9310m    693.5650m  
    3.17000n    -16.6682u    700.0302m    -31.1421m    699.9959m  
    3.18000n     -2.2659u    699.9985m    -31.1528m    700.0000m  
    3.19000n     -1.8419u    699.9977m    -31.1489m    700.0003m  
    3.20000n      3.9111u    700.0038m    -31.1453m    699.9999m  
    3.21000n      5.1058u    700.0053m    -31.1412m    699.9998m  
    3.22000n      1.2871u    700.0016m    -31.1365m    699.9999m  
    3.23000n     -5.5199u    699.9949m    -31.1315m    700.0003m  
    3.24000n   -584.7757n    699.9993m    -31.1281m    700.0002m  
    3.25000n      4.3504u    700.0037m    -31.1246m    700.0000m  
    3.26000n      2.7175u    700.0025m    -31.1202m    700.0000m  
    3.27000n     -1.6936u    699.9987m    -31.1153m    700.0000m  
    3.28000n     -4.8696u    699.9960m    -31.1107m    700.0001m  
    3.29000n     -1.7133u    699.9986m    -31.1071m    700.0001m  
    3.30000n      1.4430u    700.0011m    -31.1034m    700.0001m  
    3.31000n      4.5992u    700.0036m    -31.0998m    700.0002m  
    3.32000n      4.1010u    700.0033m    -31.0955m    700.0002m  
    3.33000n      2.2901u    700.0019m    -31.0911m    700.0001m  
    3.34000n      0.         700.0004m    -31.0866m    700.0001m  
    3.35000n     -1.3317u    699.9990m    -31.0822m    700.0000m  
    3.36000n     -3.1426u    699.9976m    -31.0777m    700.0000m  
    3.37000n     -4.9535u    699.9962m    -31.0732m    700.0000m  
    3.38000n     -3.4994u    699.9973m    -31.0693m    700.0000m  
    3.39000n     -1.7024u    699.9987m    -31.0655m    700.0001m  
    3.40000n      0.         700.0001m    -31.0617m    700.0001m  
    3.41000n      1.8918u    700.0015m    -31.0578m    700.0002m  
    3.42000n      3.6888u    700.0028m    -31.0540m    700.0002m  
    3.43000n    241.1943u    700.4975m    -28.9993m    700.2427m  
    3.44000n    617.1827u    702.6216m     -5.9487m    701.2039m  
    3.45000n    815.8797u    699.2535m     10.7725m    699.4631m  
    3.46000n    179.6650u    699.6496m      3.1849m    699.8544m  
    3.47000n     52.1314u    699.8829m    923.4597u    699.9653m  
    3.48000n     79.1655u    699.9749m    277.1202u    699.9820m  
    3.49000n     58.2824u    699.9955m     58.9185u    699.9930m  
    3.50000n     15.7166u    699.9879m      2.3656u    700.0027m  
    3.51000n      6.2282u    699.9898m    -22.5111u    700.0048m  
    3.52000n     21.8555u    699.9989m    -23.3359u    700.0010m  
    3.53000n     37.4827u    700.0080m    -24.1608u    699.9973m  
    3.54000n     49.8403u    700.0153m    -24.2401u    699.9943m  
    3.55000n     36.7802u    700.0094m    -18.5238u    699.9964m  
    3.56000n     23.7201u    700.0035m    -12.8075u    699.9985m  
    3.57000n     10.6600u    699.9975m     -7.0912u    700.0006m  
    3.58000n     -2.4001u    699.9916m     -1.3749u    700.0027m  
    3.59000n    -15.4602u    699.9857m      4.3414u    700.0048m  
    3.60000n    -15.5351u    699.9861m      4.4386u    700.0047m  
    3.61000n     -8.8212u    699.9898m      1.5979u    700.0034m  
    3.62000n     -2.1072u    699.9935m     -1.2427u    700.0022m  
    3.63000n      4.6068u    699.9973m     -4.0834u    700.0009m  
    3.64000n     11.3208u    700.0010m     -6.9240u    699.9997m  
    3.65000n     18.0348u    700.0047m     -9.7647u    699.9984m  
    3.66000n     24.7487u    700.0084m    -12.6054u    699.9971m  
    3.67000n     31.4627u    700.0122m    -15.4460u    699.9959m  
    3.68000n     38.1767u    700.0159m    -18.2867u    699.9946m  
    3.69000n     20.6389u    700.0068m     -9.9401u    699.9975m  
    3.70000n      2.4592u    699.9973m     -1.2974u    700.0006m  
    3.71000n    -15.7206u    699.9879m      7.3453u    700.0036m  
    3.72000n    553.0149u    700.5016m      5.2315m    700.1927m  
    3.73000n     -1.6516m    704.4475m     39.5510m    701.9708m  
    3.74000n     31.2035u    699.4099m     36.1403m    699.7887m  
    3.75000n   -166.5866u    699.6577m     32.3730m    699.8303m  
    3.76000n   -272.2370u    699.1362m     24.5656m    699.6116m  
    3.77000n    -65.3624u    699.0935m     14.1007m    699.5934m  
    3.78000n    -29.6658u    699.5004m      6.9950m    699.7882m  
    3.79000n    -17.8777u    699.7873m      3.3957m    699.9091m  
    3.80000n      4.2179u    699.8884m      1.4710m    699.9444m  
    3.81000n     -9.2942u    699.9662m    602.1517u    699.9935m  
    3.82000n     -3.1324u    699.9824m    305.0581u    699.9942m  
    3.83000n      6.4330u    699.9879m    106.8749u    699.9865m  
    3.84000n      3.9041u    699.9928m     61.0225u    699.9921m  
    3.85000n      0.         699.9976m     31.3574u    699.9992m  
    3.86000n     -3.7240u    700.0025m      1.6923u    700.0062m  
    3.87000n     -5.4664u    700.0050m    -15.0841u    700.0094m  
    3.88000n     -3.5473u    700.0033m     -9.0808u    700.0061m  
    3.89000n     -1.6282u    700.0017m     -3.0776u    700.0028m  
    3.90000n      0.         700.0000m      2.9256u    699.9995m  
    3.91000n      2.2101u    699.9984m      8.9289u    699.9962m  
    3.92000n      4.1292u    699.9967m     14.9321u    699.9929m  
    3.93000n      5.6364u    699.9954m     19.7263u    699.9903m  
    3.94000n      4.0986u    699.9966m     15.5831u    699.9929m  
    3.95000n      2.5609u    699.9977m     11.4399u    699.9956m  
    3.96000n      1.0231u    699.9989m      7.2967u    699.9983m  
    3.97000n   -514.7039n    700.0000m      3.1535u    700.0009m  
    3.98000n     -2.0525u    700.0012m   -989.7160n    700.0036m  
    3.99000n     -3.5903u    700.0024m     -5.1329u    700.0063m  
    4.00000n     -5.1280u    700.0035m     -9.2761u    700.0090m  
    4.01000n    179.3998u    700.3566m      2.6551m    700.1754m  
    4.02000n     41.0467u    709.8846m     48.9656m    704.5789m  
    4.03000n     -5.2544u    701.5038m     80.8132m    700.6391m  
    4.04000n      2.6041u    700.6945m     90.2178m    700.2990m  
    4.05000n      0.         700.3119m     94.8126m    700.1331m  
    4.06000n      2.4736u    700.1140m     97.0541m    700.0497m  
    4.07000n    981.9775n    700.0556m     97.7952m    700.0242m  
    4.08000n     -1.3369u    700.0238m     98.2494m    700.0098m  
    4.09000n   -857.1205n    700.0113m     98.3882m    700.0045m  
    4.10000n      0.         700.0040m     98.4418m    700.0017m  
    4.11000n      1.6133u    699.9967m     98.4954m    699.9989m  
    4.12000n    994.0660n    699.9979m     98.4991m    699.9993m  
    4.13000n      0.         699.9994m     98.5006m    699.9998m  
    4.14000n      0.         700.0008m     98.5021m    700.0003m  
    4.15000n     -1.1068u    700.0023m     98.5036m    700.0009m  
    4.16000n     -1.2137u    700.0026m     98.5040m    700.0009m  
    4.17000n   -893.3637n    700.0018m     98.5037m    700.0007m  
    4.18000n   -572.9925n    700.0011m     98.5033m    700.0004m  
    4.19000n      0.         700.0004m     98.5030m    700.0001m  
    4.20000n      0.         699.9997m     98.5027m    699.9999m  
    4.21000n      0.         699.9990m     98.5023m    699.9996m  
    4.22000n    708.4920n    699.9983m     98.5020m    699.9993m  
    4.23000n      1.0289u    699.9976m     98.5017m    699.9991m  
    4.24000n      1.3492u    699.9969m     98.5013m    699.9988m  
    4.25000n    919.4234n    699.9978m     98.5017m    699.9992m  
    4.26000n      0.         699.9991m     98.5022m    699.9997m  
    4.27000n      0.         700.0004m     98.5027m    700.0002m  
    4.28000n   -833.8548n    700.0017m     98.5032m    700.0007m  
    4.29000n    362.9769u    703.2535m    109.6580m    701.6601m  
    4.30000n    155.4033u    722.7373m    246.3319m    711.3405m  
    4.31000n    505.7323u    730.7055m    384.0473m    716.5224m  
    4.32000n    -15.6756u    739.1445m    461.6743m    722.6335m  
    4.33000n    -23.2391u    738.8489m    485.8448m    723.2299m  
    4.34000n    -54.5612u    737.7686m    499.8465m    723.2665m  
    4.35000n    -17.1786u    736.7161m    508.5296m    723.1272m  
    4.36000n    -53.0938u    735.7422m    515.1757m    722.9122m  
    4.37000n    -29.9945u    734.9276m    519.8430m    722.7035m  
    4.38000n      0.         734.1315m    524.2785m    722.4955m  
    4.39000n     -4.5664u    733.5157m    527.4221m    722.2929m  
    4.40000n    -16.5518u    732.9384m    530.2896m    722.0916m  
    4.41000n    -28.5373u    732.3611m    533.1570m    721.8902m  
    4.42000n    -38.4387u    731.8014m    535.9247m    721.6933m  
    4.43000n    -28.1213u    731.4128m    537.7243m    721.5398m  
    4.44000n    -17.8039u    731.0242m    539.5239m    721.3863m  
    4.45000n     -7.4865u    730.6356m    541.3235m    721.2329m  
    4.46000n      2.8308u    730.2470m    543.1231m    721.0794m  
    4.47000n     13.1482u    729.8584m    544.9227m    720.9259m  
    4.48000n      9.6108u    729.5854m    546.1837m    720.8011m  
    4.49000n      3.7732u    729.3315m    547.3552m    720.6812m  
    4.50000n     -2.0644u    729.0777m    548.5268m    720.5612m  
    4.51000n     -7.9020u    728.8238m    549.6984m    720.4412m  
    4.52000n    -13.7396u    728.5700m    550.8700m    720.3212m  
    4.53000n    -19.5772u    728.3161m    552.0415m    720.2012m  
    4.54000n    -25.4148u    728.0623m    553.2131m    720.0812m  
    4.55000n    -29.2369u    727.8246m    554.3114m    719.9681m  
    4.56000n    -24.4628u    727.6557m    555.0969m    719.8842m  
    4.57000n    -19.6886u    727.4869m    555.8824m    719.8003m  
    4.58000n    -14.9145u    727.3180m    556.6679m    719.7164m  
    4.59000n    -10.1404u    727.1492m    557.4534m    719.6325m  
    4.60000n     -5.3663u    726.9804m    558.2389m    719.5485m  
    4.61000n   -592.2340n    726.8115m    559.0244m    719.4646m  
    4.62000n      4.1819u    726.6427m    559.8099m    719.3807m  
    4.63000n      8.9560u    726.4738m    560.5954m    719.2968m  
    4.64000n     13.7301u    726.3050m    561.3809m    719.2129m  
    4.65000n     18.5042u    726.1361m    562.1664m    719.1290m  
    4.66000n     16.2867u    726.0200m    562.7278m    719.0645m  
    4.67000n     13.2252u    725.9103m    563.2621m    719.0023m  
    4.68000n     10.1636u    725.8006m    563.7964m    718.9401m  
    4.69000n      7.1021u    725.6908m    564.3307m    718.8779m  
    4.70000n      4.0406u    725.5811m    564.8650m    718.8157m  
    4.71000n    979.0594n    725.4714m    565.3994m    718.7535m  
    4.72000n     -2.0825u    725.3616m    565.9337m    718.6913m  
    4.73000n     -5.1440u    725.2519m    566.4680m    718.6291m  
    4.74000n     -8.2055u    725.1422m    567.0023m    718.5669m  
    4.75000n    -11.2670u    725.0324m    567.5366m    718.5047m  
    4.76000n    -14.3286u    724.9227m    568.0709m    718.4425m  
    4.77000n    -17.3901u    724.8130m    568.6052m    718.3803m  
    4.78000n    -20.4516u    724.7032m    569.1396m    718.3181m  
    4.79000n    -23.5131u    724.5935m    569.6739m    718.2559m  
    4.80000n    -24.6644u    724.4884m    570.1866m    718.1967m  
    4.81000n    -16.8804u    724.4049m    570.5985m    718.1513m  
    4.82000n     -9.0964u    724.3214m    571.0103m    718.1059m  
    4.83000n     -1.3124u    724.2379m    571.4222m    718.0606m  
    4.84000n      6.4716u    724.1544m    571.8340m    718.0152m  
    4.85000n     14.2556u    724.0709m    572.2458m    717.9698m  
    4.86000n     93.9058m    799.7558m    613.3106m    762.6967m  
    4.87000n    422.0933m      1.0159     692.2608m    709.2500m  
    4.88000n    686.7345m      1.0108     690.1703m     50.8560m  
    4.89000n    698.4265m    967.9021m    698.7210m      9.5502m  
    4.90000n    699.3621m    947.7328m    699.4471m      3.0790m  
    4.91000n    699.6998m    935.0413m    699.7077m    910.4849u  
    4.92000n    699.8453m    925.2879m    699.8225m    119.0789u  
    4.93000n    699.8835m    918.9670m    699.8641m     28.0829u  
    4.94000n    699.9077m    913.0932m    699.8961m     28.3152u  
    4.95000n    699.9223m    908.5826m    699.9136m     26.2224u  
    4.96000n    699.9311m    904.8960m    699.9224m     22.7243u  
    4.97000n    699.9399m    901.2093m    699.9312m     19.2263u  
    4.98000n    699.9476m    897.8379m    699.9392m     16.8651u  
    4.99000n    699.9517m    895.4946m    699.9450m     18.2118u  
    5.00000n    699.9558m    893.1514m    699.9508m     19.5585u  
    5.01000n    699.9599m    890.8082m    699.9565m     20.9052u  
    5.02000n    699.9641m    888.4649m    699.9623m     22.2519u  
    5.03000n    699.9676m    886.2888m    699.9670m     23.0568u  
    5.04000n    699.9690m    884.7905m    699.9679m     21.6652u  
    5.05000n    699.9703m    883.2921m    699.9687m     20.2735u  
    5.06000n    699.9716m    881.7937m    699.9696m     18.8819u  
    5.07000n    699.9729m    880.2953m    699.9704m     17.4902u  
    5.08000n    699.9743m    878.7970m    699.9713m     16.0986u  
    5.09000n    699.9756m    877.2986m    699.9721m     14.7069u  
    5.10000n    699.9769m    875.8002m    699.9729m     13.3153u  
    5.11000n    699.9783m    874.4054m    699.9743m     12.8173u  
    5.12000n    699.9796m    873.3233m    699.9772m     15.0174u  
    5.13000n    699.9809m    872.2412m    699.9801m     17.2175u  
    5.14000n    699.9823m    871.1590m    699.9830m     19.4176u  
    5.15000n    681.6425m    792.3553m    696.8282m     -2.9296m  
    5.16000n    664.6921m    146.8621m    686.0598m      1.3023m  
    5.17000n    699.4579m     85.9126u    699.8350m      1.5804m  
    5.18000n    699.9842m      4.2212u    700.0056m    284.4224u  
    5.19000n    699.9865m     -1.9992u    699.9885m     93.4688u  
    5.20000n    699.9918m     -1.8162u    699.9902m     26.5439u  
    5.21000n    700.0021m      2.0261u    700.0049m     21.3750u  
    5.22000n    700.0100m      4.9024u    700.0161m     16.8880u  
    5.23000n    700.0068m      3.3456u    700.0110m     15.5303u  
    5.24000n    700.0037m      1.7888u    700.0059m     14.1726u  
    5.25000n    700.0005m      0.         700.0008m     12.8149u  
    5.26000n    699.9974m     -1.3248u    699.9957m     11.4572u  
    5.27000n    699.9943m     -2.8816u    699.9906m     10.0995u  
    5.28000n    699.9911m     -4.4384u    699.9855m      8.7418u  
    5.29000n    699.9908m     -4.5584u    699.9850m      8.6423u  
    5.30000n    699.9924m     -3.7359u    699.9876m      9.3682u  
    5.31000n    699.9939m     -2.9135u    699.9902m     10.0942u  
    5.32000n    699.9954m     -2.0910u    699.9927m     10.8201u  
    5.33000n    699.9970m     -1.2686u    699.9953m     11.5460u  
    5.34000n    699.9985m      0.         699.9979m     12.2719u  
    5.35000n    700.0000m      0.         700.0004m     12.9978u  
    5.36000n    700.0016m      1.1988u    700.0030m     13.7238u  
    5.37000n    700.0031m      2.0212u    700.0056m     14.4497u  
    5.38000n    700.0046m      2.8437u    700.0081m     15.1756u  
    5.39000n    700.0062m      3.6661u    700.0107m     15.9015u  
    5.40000n    700.0077m      4.4886u    700.0133m     16.6274u  
    5.41000n    700.0093m      5.3110u    700.0158m     17.3534u  
    5.42000n    700.0089m      5.1069u    700.0152m     17.0235u  
    5.43000n    700.0083m      4.7571u    700.0142m     16.5440u  
    5.44000n    700.0076m      4.4073u    700.0131m     16.0644u  
    5.45000n    700.0070m      4.0576u    700.0120m     15.5849u  
    5.46000n    700.0064m      3.7078u    700.0110m     15.1053u  
    5.47000n    700.0057m      3.3580u    700.0099m     14.6258u  
    5.48000n    700.0051m      3.0083u    700.0088m     14.1462u  
    5.49000n    700.0045m      2.6585u    700.0078m     13.6667u  
    5.50000n    700.0039m      2.3087u    700.0067m     13.1871u  
    5.51000n    700.0032m      1.9590u    700.0056m     12.7076u  
    5.52000n    700.0026m      1.6092u    700.0046m     12.2280u  
    5.53000n    700.0020m      1.2595u    700.0035m     11.7484u  
    5.54000n    700.0013m    909.6982n    700.0024m     11.2689u  
    5.55000n    700.0007m    559.9355n    700.0014m     10.7893u  
    5.56000n    700.0001m      0.         700.0003m     10.3098u  
    5.57000n    699.9994m      0.         699.9992m      9.8302u  
    5.58000n    699.9988m      0.         699.9981m      9.3507u  
    5.59000n    699.9982m   -839.1155n    699.9971m      8.8711u  
    5.60000n    699.9976m     -1.1889u    699.9960m      8.3916u  
    5.61000n    699.9969m     -1.5386u    699.9949m      7.9120u  
    5.62000n    699.9963m     -1.8884u    699.9939m      7.4325u  
    5.63000n    699.9957m     -2.2382u    699.9928m      6.9529u  
    5.64000n    699.9950m     -2.5879u    699.9917m      6.4733u  
    5.65000n    699.9944m     -2.9377u    699.9907m      5.9938u  
    5.66000n    699.9938m     -3.2875u    699.9896m      5.5142u  
    5.67000n    699.9931m     -3.6372u    699.9885m      5.0347u  
    5.68000n    699.9925m     -3.9870u    699.9875m      4.5551u  
    5.69000n    699.9919m     -4.3367u    699.9864m      4.0756u  
    5.70000n    699.9913m     -4.6865u    699.9853m      3.5960u  
    5.71000n    699.9906m     -5.0363u    699.9843m      3.1165u  
    5.72000n    700.3690m      3.3909u    700.1615m      3.3819m  
    5.73000n    704.5442m     -5.1763m    702.1558m     35.1412m  
    5.74000n    699.9192m    -36.3970u    699.9750m     49.2243m  
    5.75000n    699.9287m   -155.3236u    699.9655m     49.0928m  
    5.76000n    699.7032m   -129.3953u    699.8622m     46.3707m  
    5.77000n    699.6801m    -68.0640u    699.8548m     43.1872m  
    5.78000n    699.8297m    -15.9175u    699.9351m     40.1899m  
    5.79000n    699.9098m     -9.5302u    699.9614m     38.9548m  
    5.80000n    699.9672m     -7.6957u    699.9792m     38.1253m  
    5.81000n    699.9796m      0.         699.9937m     37.8521m  
    5.82000n    699.9901m      2.6790u    700.0002m     37.6951m  
    5.83000n    699.9987m   -815.8785n    699.9981m     37.6626m  
    5.84000n    700.0054m     -3.4999u    699.9966m     37.6343m  
    5.85000n    700.0024m     -1.7254u    699.9982m     37.6287m  
    5.86000n    699.9994m      0.         699.9998m     37.6231m  
    5.87000n    699.9963m      1.8236u    700.0015m     37.6175m  
    5.88000n    699.9936m      3.4292u    700.0029m     37.6124m  
    5.89000n    699.9951m      2.6515u    700.0022m     37.6145m  
    5.90000n    699.9966m      1.8739u    700.0015m     37.6166m  
    5.91000n    699.9981m      1.0962u    700.0008m     37.6187m  
    5.92000n    699.9997m      0.         700.0001m     37.6208m  
    5.93000n    700.0012m      0.         699.9994m     37.6229m  
    5.94000n    700.0027m     -1.2367u    699.9987m     37.6251m  
    5.95000n    700.0042m     -2.0144u    699.9980m     37.6272m  
    5.96000n    700.0057m     -2.7920u    699.9973m     37.6293m  
    5.97000n    700.0036m     -1.8660u    699.9982m     37.6271m  
    5.98000n    700.0003m      0.         699.9996m     37.6233m  
    5.99000n    699.9969m      1.1819u    700.0009m     37.6196m  
    6.00000n    699.9936m      2.7058u    700.0023m     37.6158m  
    6.01000n    699.9571m     22.5863u    700.0206m     28.4356m  
    6.02000n    698.2728m    -52.4280u    699.2387m     16.5578m  
    6.03000n    699.4640m    -42.8415u    699.7698m      8.3039m  
    6.04000n    699.7232m    -14.5725u    699.8792m      4.2506m  
    6.05000n    699.8759m    -10.9254u    699.9476m      1.8086m  
    6.06000n    699.9403m     -4.0286u    699.9746m    856.0055u  
    6.07000n    699.9822m      3.7020u    699.9909m    285.5564u  
    6.08000n    699.9934m      2.3859u    699.9963m    109.1377u  
    6.09000n    699.9955m     -1.6307u    699.9983m     50.3385u  
    6.10000n    699.9976m     -5.4871u    700.0004m     -7.0251u  
    6.11000n    699.9989m     -2.6627u    700.0002m     -4.5573u  
    6.12000n    700.0002m      0.         700.0000m     -2.0896u  
    6.13000n    700.0014m      2.9861u    699.9998m      0.       
[...]
    1.68000n    700.0000m  
    1.69000n    700.0000m  
    1.70000n    700.0000m  
    1.71000n    700.0000m  
    1.72000n    700.0000m  
    1.73000n    700.0000m  
    1.74000n    700.0000m  
    1.75000n    700.0000m  
    1.76000n    700.0000m  
    1.77000n    700.0000m  
    1.78000n    700.0000m  
    1.79000n    700.0000m  
    1.80000n    700.0000m  
    1.81000n    700.0000m  
    1.82000n    700.0000m  
    1.83000n    700.0000m  
    1.84000n    700.0000m  
    1.85000n    700.0000m  
    1.86000n    700.0000m  
    1.87000n    700.0000m  
    1.88000n    700.0000m  
    1.89000n    700.0000m  
    1.90000n    700.0000m  
    1.91000n    700.0000m  
    1.92000n    700.0000m  
    1.93000n    700.0000m  
    1.94000n    700.0000m  
    1.95000n    700.0000m  
    1.96000n    700.0000m  
    1.97000n    700.0000m  
    1.98000n    700.0000m  
    1.99000n    700.0000m  
    2.00000n    700.0000m  
    2.01000n    700.0000m  
    2.02000n    700.0000m  
    2.03000n    700.0000m  
    2.04000n    700.0000m  
    2.05000n    700.0000m  
    2.06000n    700.0000m  
    2.07000n    700.0000m  
    2.08000n    700.0000m  
    2.09000n    700.0000m  
    2.10000n    700.0000m  
    2.11000n    700.0000m  
    2.12000n    700.0000m  
    2.13000n    700.0000m  
    2.14000n    700.0000m  
    2.15000n    700.0000m  
    2.16000n    700.0000m  
    2.17000n    700.0000m  
    2.18000n    700.0000m  
    2.19000n    700.0000m  
    2.20000n    700.0000m  
    2.21000n    700.0000m  
    2.22000n    700.0000m  
    2.23000n    700.0000m  
    2.24000n    700.0000m  
    2.25000n    700.0000m  
    2.26000n    700.0000m  
    2.27000n    700.0000m  
    2.28000n    700.0000m  
    2.29000n    700.0000m  
    2.30000n    700.0000m  
    2.31000n    700.0000m  
    2.32000n    700.0000m  
    2.33000n    700.0000m  
    2.34000n    700.0000m  
    2.35000n    700.0000m  
    2.36000n    700.0000m  
    2.37000n    700.0000m  
    2.38000n    700.0000m  
    2.39000n    700.0000m  
    2.40000n    700.0000m  
    2.41000n    700.0000m  
    2.42000n    700.0000m  
    2.43000n    700.0000m  
    2.44000n    700.0000m  
    2.45000n    700.0000m  
    2.46000n    700.0000m  
    2.47000n    700.0000m  
    2.48000n    700.0000m  
    2.49000n    700.0000m  
    2.50000n    700.0000m  
    2.51000n    700.0000m  
    2.52000n    700.0000m  
    2.53000n    700.0000m  
    2.54000n    700.0000m  
    2.55000n    700.0000m  
    2.56000n    700.0000m  
    2.57000n    700.0000m  
    2.58000n    700.0000m  
    2.59000n    700.0000m  
    2.60000n    700.0000m  
    2.61000n    700.0000m  
    2.62000n    700.0000m  
    2.63000n    700.0000m  
    2.64000n    700.0000m  
    2.65000n    700.0000m  
    2.66000n    700.0000m  
    2.67000n    700.0000m  
    2.68000n    700.0000m  
    2.69000n    700.0000m  
    2.70000n    700.0000m  
    2.71000n    700.0000m  
    2.72000n    700.0000m  
    2.73000n    700.0000m  
    2.74000n    700.0000m  
    2.75000n    700.0000m  
    2.76000n    700.0000m  
    2.77000n    700.0000m  
    2.78000n    700.0000m  
    2.79000n    700.0000m  
    2.80000n    700.0000m  
    2.81000n    700.0000m  
    2.82000n    700.0000m  
    2.83000n    700.0000m  
    2.84000n    700.0000m  
    2.85000n    700.0000m  
    2.86000n    700.0000m  
    2.87000n    700.0000m  
    2.88000n    700.0000m  
    2.89000n    700.0000m  
    2.90000n    700.0000m  
    2.91000n    700.0000m  
    2.92000n    700.0000m  
    2.93000n    700.0000m  
    2.94000n    700.0000m  
    2.95000n    700.0000m  
    2.96000n    700.0000m  
    2.97000n    700.0000m  
    2.98000n    700.0000m  
    2.99000n    700.0000m  
    3.00000n    700.0000m  
    3.01000n    700.0000m  
    3.02000n    700.0000m  
    3.03000n    700.0000m  
    3.04000n    700.0000m  
    3.05000n    700.0000m  
    3.06000n    700.0000m  
    3.07000n    700.0000m  
    3.08000n    700.0000m  
    3.09000n    700.0000m  
    3.10000n    700.0000m  
    3.11000n    700.0000m  
    3.12000n    700.0000m  
    3.13000n    700.0000m  
    3.14000n    700.0000m  
    3.15000n    450.0000m  
    3.16000n    100.0000m  
    3.17000n      0.       
    3.18000n      0.       
    3.19000n      0.       
    3.20000n      0.       
    3.21000n      0.       
    3.22000n      0.       
    3.23000n      0.       
    3.24000n      0.       
    3.25000n      0.       
    3.26000n      0.       
    3.27000n      0.       
    3.28000n      0.       
    3.29000n      0.       
    3.30000n      0.       
    3.31000n      0.       
    3.32000n      0.       
    3.33000n      0.       
    3.34000n      0.       
    3.35000n      0.       
    3.36000n      0.       
    3.37000n      0.       
    3.38000n      0.       
    3.39000n      0.       
    3.40000n      0.       
    3.41000n      0.       
    3.42000n      0.       
    3.43000n     50.0000m  
    3.44000n    400.0000m  
    3.45000n    700.0000m  
    3.46000n    700.0000m  
    3.47000n    700.0000m  
    3.48000n    700.0000m  
    3.49000n    700.0000m  
    3.50000n    700.0000m  
    3.51000n    700.0000m  
    3.52000n    700.0000m  
    3.53000n    700.0000m  
    3.54000n    700.0000m  
    3.55000n    700.0000m  
    3.56000n    700.0000m  
    3.57000n    700.0000m  
    3.58000n    700.0000m  
    3.59000n    700.0000m  
    3.60000n    700.0000m  
    3.61000n    700.0000m  
    3.62000n    700.0000m  
    3.63000n    700.0000m  
    3.64000n    700.0000m  
    3.65000n    700.0000m  
    3.66000n    700.0000m  
    3.67000n    700.0000m  
    3.68000n    700.0000m  
    3.69000n    700.0000m  
    3.70000n    700.0000m  
    3.71000n    700.0000m  
    3.72000n    700.0000m  
    3.73000n    700.0000m  
    3.74000n    700.0000m  
    3.75000n    700.0000m  
    3.76000n    700.0000m  
    3.77000n    700.0000m  
    3.78000n    700.0000m  
    3.79000n    700.0000m  
    3.80000n    700.0000m  
    3.81000n    700.0000m  
    3.82000n    700.0000m  
    3.83000n    700.0000m  
    3.84000n    700.0000m  
    3.85000n    700.0000m  
    3.86000n    700.0000m  
    3.87000n    700.0000m  
    3.88000n    700.0000m  
    3.89000n    700.0000m  
    3.90000n    700.0000m  
    3.91000n    700.0000m  
    3.92000n    700.0000m  
    3.93000n    700.0000m  
    3.94000n    700.0000m  
    3.95000n    700.0000m  
    3.96000n    700.0000m  
    3.97000n    700.0000m  
    3.98000n    700.0000m  
    3.99000n    700.0000m  
    4.00000n    700.0000m  
    4.01000n    700.0000m  
    4.02000n    700.0000m  
    4.03000n    700.0000m  
    4.04000n    700.0000m  
    4.05000n    700.0000m  
    4.06000n    700.0000m  
    4.07000n    700.0000m  
    4.08000n    700.0000m  
    4.09000n    700.0000m  
    4.10000n    700.0000m  
    4.11000n    700.0000m  
    4.12000n    700.0000m  
    4.13000n    700.0000m  
    4.14000n    700.0000m  
    4.15000n    700.0000m  
    4.16000n    700.0000m  
    4.17000n    700.0000m  
    4.18000n    700.0000m  
    4.19000n    700.0000m  
    4.20000n    700.0000m  
    4.21000n    700.0000m  
    4.22000n    700.0000m  
    4.23000n    700.0000m  
    4.24000n    700.0000m  
    4.25000n    700.0000m  
    4.26000n    700.0000m  
    4.27000n    700.0000m  
    4.28000n    700.0000m  
    4.29000n    700.0000m  
    4.30000n    700.0000m  
    4.31000n    700.0000m  
    4.32000n    700.0000m  
    4.33000n    700.0000m  
    4.34000n    700.0000m  
    4.35000n    700.0000m  
    4.36000n    700.0000m  
    4.37000n    700.0000m  
    4.38000n    700.0000m  
    4.39000n    700.0000m  
    4.40000n    700.0000m  
    4.41000n    700.0000m  
    4.42000n    700.0000m  
    4.43000n    700.0000m  
    4.44000n    700.0000m  
    4.45000n    700.0000m  
    4.46000n    700.0000m  
    4.47000n    700.0000m  
    4.48000n    700.0000m  
    4.49000n    700.0000m  
    4.50000n    700.0000m  
    4.51000n    700.0000m  
    4.52000n    700.0000m  
    4.53000n    700.0000m  
    4.54000n    700.0000m  
    4.55000n    700.0000m  
    4.56000n    700.0000m  
    4.57000n    700.0000m  
    4.58000n    700.0000m  
    4.59000n    700.0000m  
    4.60000n    700.0000m  
    4.61000n    700.0000m  
    4.62000n    700.0000m  
    4.63000n    700.0000m  
    4.64000n    700.0000m  
    4.65000n    700.0000m  
    4.66000n    700.0000m  
    4.67000n    700.0000m  
    4.68000n    700.0000m  
    4.69000n    700.0000m  
    4.70000n    700.0000m  
    4.71000n    700.0000m  
    4.72000n    700.0000m  
    4.73000n    700.0000m  
    4.74000n    700.0000m  
    4.75000n    700.0000m  
    4.76000n    700.0000m  
    4.77000n    700.0000m  
    4.78000n    700.0000m  
    4.79000n    700.0000m  
    4.80000n    700.0000m  
    4.81000n    700.0000m  
    4.82000n    700.0000m  
    4.83000n    700.0000m  
    4.84000n    700.0000m  
    4.85000n    700.0000m  
    4.86000n    700.0000m  
    4.87000n    700.0000m  
    4.88000n    700.0000m  
    4.89000n    700.0000m  
    4.90000n    700.0000m  
    4.91000n    700.0000m  
    4.92000n    700.0000m  
    4.93000n    700.0000m  
    4.94000n    700.0000m  
    4.95000n    700.0000m  
    4.96000n    700.0000m  
    4.97000n    700.0000m  
    4.98000n    700.0000m  
    4.99000n    700.0000m  
    5.00000n    700.0000m  
    5.01000n    700.0000m  
    5.02000n    700.0000m  
    5.03000n    700.0000m  
    5.04000n    700.0000m  
    5.05000n    700.0000m  
    5.06000n    700.0000m  
    5.07000n    700.0000m  
    5.08000n    700.0000m  
    5.09000n    700.0000m  
    5.10000n    700.0000m  
    5.11000n    700.0000m  
    5.12000n    700.0000m  
    5.13000n    700.0000m  
    5.14000n    700.0000m  
    5.15000n    700.0000m  
    5.16000n    700.0000m  
    5.17000n    700.0000m  
    5.18000n    700.0000m  
    5.19000n    700.0000m  
    5.20000n    700.0000m  
    5.21000n    700.0000m  
    5.22000n    700.0000m  
    5.23000n    700.0000m  
    5.24000n    700.0000m  
    5.25000n    700.0000m  
    5.26000n    700.0000m  
    5.27000n    700.0000m  
    5.28000n    700.0000m  
    5.29000n    700.0000m  
    5.30000n    700.0000m  
    5.31000n    700.0000m  
    5.32000n    700.0000m  
    5.33000n    700.0000m  
    5.34000n    700.0000m  
    5.35000n    700.0000m  
    5.36000n    700.0000m  
    5.37000n    700.0000m  
    5.38000n    700.0000m  
    5.39000n    700.0000m  
    5.40000n    700.0000m  
    5.41000n    700.0000m  
    5.42000n    700.0000m  
    5.43000n    700.0000m  
    5.44000n    700.0000m  
    5.45000n    700.0000m  
    5.46000n    700.0000m  
    5.47000n    700.0000m  
    5.48000n    700.0000m  
    5.49000n    700.0000m  
    5.50000n    700.0000m  
    5.51000n    700.0000m  
    5.52000n    700.0000m  
    5.53000n    700.0000m  
    5.54000n    700.0000m  
    5.55000n    700.0000m  
    5.56000n    700.0000m  
    5.57000n    700.0000m  
    5.58000n    700.0000m  
    5.59000n    700.0000m  
    5.60000n    700.0000m  
    5.61000n    700.0000m  
    5.62000n    700.0000m  
    5.63000n    700.0000m  
    5.64000n    700.0000m  
    5.65000n    700.0000m  
    5.66000n    700.0000m  
    5.67000n    700.0000m  
    5.68000n    700.0000m  
    5.69000n    700.0000m  
    5.70000n    700.0000m  
    5.71000n    700.0000m  
    5.72000n    700.0000m  
    5.73000n    700.0000m  
    5.74000n    700.0000m  
    5.75000n    700.0000m  
    5.76000n    700.0000m  
    5.77000n    700.0000m  
    5.78000n    700.0000m  
    5.79000n    700.0000m  
    5.80000n    700.0000m  
    5.81000n    700.0000m  
    5.82000n    700.0000m  
    5.83000n    700.0000m  
    5.84000n    700.0000m  
    5.85000n    700.0000m  
    5.86000n    700.0000m  
    5.87000n    700.0000m  
    5.88000n    700.0000m  
    5.89000n    700.0000m  
    5.90000n    700.0000m  
    5.91000n    700.0000m  
    5.92000n    700.0000m  
    5.93000n    700.0000m  
    5.94000n    700.0000m  
    5.95000n    700.0000m  
    5.96000n    700.0000m  
    5.97000n    700.0000m  
    5.98000n    700.0000m  
    5.99000n    700.0000m  
    6.00000n    700.0000m  
    6.01000n    700.0000m  
    6.02000n    700.0000m  
    6.03000n    700.0000m  
    6.04000n    700.0000m  
    6.05000n    700.0000m  
    6.06000n    700.0000m  
    6.07000n    700.0000m  
    6.08000n    700.0000m  
    6.09000n    700.0000m  
    6.10000n    700.0000m  
    6.11000n    700.0000m  
    6.12000n    700.0000m  
    6.13000n    700.0000m  
    6.14000n    700.0000m  
    6.15000n    700.0000m  
    6.16000n    700.0000m  
    6.17000n    700.0000m  
    6.18000n    700.0000m  
    6.19000n    700.0000m  
    6.20000n    700.0000m  
    6.21000n    700.0000m  
    6.22000n    700.0000m  
    6.23000n    700.0000m  
    6.24000n    700.0000m  
    6.25000n    700.0000m  
    6.26000n    700.0000m  
    6.27000n    700.0000m  
    6.28000n    700.0000m  
    6.29000n    700.0000m  
    6.30000n    700.0000m  
    6.31000n    700.0000m  
    6.32000n    700.0000m  
    6.33000n    700.0000m  
    6.34000n    700.0000m  
    6.35000n    700.0000m  
    6.36000n    700.0000m  
    6.37000n    700.0000m  
    6.38000n    700.0000m  
    6.39000n    700.0000m  
    6.40000n    700.0000m  
    6.41000n    700.0000m  
    6.42000n    700.0000m  
    6.43000n    700.0000m  
    6.44000n    700.0000m  
    6.45000n    700.0000m  
    6.46000n    700.0000m  
    6.47000n    700.0000m  
    6.48000n    700.0000m  
    6.49000n    700.0000m  
    6.50000n    700.0000m  
    6.51000n    700.0000m  
    6.52000n    700.0000m  
    6.53000n    700.0000m  
    6.54000n    700.0000m  
    6.55000n    700.0000m  
    6.56000n    700.0000m  
    6.57000n    700.0000m  
    6.58000n    700.0000m  
    6.59000n    700.0000m  
    6.60000n    700.0000m  
    6.61000n    700.0000m  
    6.62000n    700.0000m  
    6.63000n    700.0000m  
    6.64000n    700.0000m  
    6.65000n    700.0000m  
    6.66000n    700.0000m  
    6.67000n    700.0000m  
    6.68000n    700.0000m  
    6.69000n    700.0000m  
    6.70000n    700.0000m  
    6.71000n    700.0000m  
    6.72000n    700.0000m  
    6.73000n    700.0000m  
    6.74000n    700.0000m  
    6.75000n    700.0000m  
    6.76000n    700.0000m  
    6.77000n    700.0000m  
    6.78000n    700.0000m  
    6.79000n    700.0000m  
    6.80000n    700.0000m  
    6.81000n    700.0000m  
    6.82000n    700.0000m  
    6.83000n    700.0000m  
    6.84000n    700.0000m  
    6.85000n    700.0000m  
    6.86000n    700.0000m  
    6.87000n    700.0000m  
    6.88000n    700.0000m  
    6.89000n    700.0000m  
    6.90000n    700.0000m  
    6.91000n    700.0000m  
    6.92000n    700.0000m  
    6.93000n    700.0000m  
    6.94000n    700.0000m  
    6.95000n    700.0000m  
    6.96000n    700.0000m  
    6.97000n    700.0000m  
    6.98000n    700.0000m  
    6.99000n    700.0000m  
    7.00000n    700.0000m  
    7.01000n    700.0000m  
    7.02000n    700.0000m  
    7.03000n    700.0000m  
    7.04000n    700.0000m  
    7.05000n    700.0000m  
    7.06000n    700.0000m  
    7.07000n    700.0000m  
    7.08000n    700.0000m  
    7.09000n    700.0000m  
    7.10000n    700.0000m  
    7.11000n    700.0000m  
    7.12000n    700.0000m  
    7.13000n    700.0000m  
    7.14000n    700.0000m  
    7.15000n    450.0000m  
    7.16000n    100.0000m  
    7.17000n      0.       
    7.18000n      0.       
    7.19000n      0.       
    7.20000n      0.       
    7.21000n      0.       
    7.22000n      0.       
    7.23000n      0.       
    7.24000n      0.       
    7.25000n      0.       
    7.26000n      0.       
    7.27000n      0.       
    7.28000n      0.       
    7.29000n      0.       
    7.30000n      0.       
    7.31000n      0.       
    7.32000n      0.       
    7.33000n      0.       
    7.34000n      0.       
    7.35000n      0.       
    7.36000n      0.       
    7.37000n      0.       
    7.38000n      0.       
    7.39000n      0.       
    7.40000n      0.       
    7.41000n      0.       
    7.42000n      0.       
    7.43000n     50.0000m  
    7.44000n    400.0000m  
    7.45000n    700.0000m  
    7.46000n    700.0000m  
    7.47000n    700.0000m  
    7.48000n    700.0000m  
    7.49000n    700.0000m  
    7.50000n    700.0000m  
    7.51000n    700.0000m  
    7.52000n    700.0000m  
    7.53000n    700.0000m  
    7.54000n    700.0000m  
    7.55000n    700.0000m  
    7.56000n    700.0000m  
    7.57000n    700.0000m  
    7.58000n    700.0000m  
    7.59000n    700.0000m  
    7.60000n    700.0000m  
    7.61000n    700.0000m  
    7.62000n    700.0000m  
    7.63000n    700.0000m  
    7.64000n    700.0000m  
    7.65000n    700.0000m  
    7.66000n    700.0000m  
    7.67000n    700.0000m  
    7.68000n    700.0000m  
    7.69000n    700.0000m  
    7.70000n    700.0000m  
    7.71000n    700.0000m  
    7.72000n    700.0000m  
    7.73000n    700.0000m  
    7.74000n    700.0000m  
    7.75000n    700.0000m  
    7.76000n    700.0000m  
    7.77000n    700.0000m  
    7.78000n    700.0000m  
    7.79000n    700.0000m  
    7.80000n    700.0000m  
    7.81000n    700.0000m  
    7.82000n    700.0000m  
    7.83000n    700.0000m  
    7.84000n    700.0000m  
    7.85000n    700.0000m  
    7.86000n    700.0000m  
    7.87000n    700.0000m  
    7.88000n    700.0000m  
    7.89000n    700.0000m  
    7.90000n    700.0000m  
    7.91000n    700.0000m  
    7.92000n    700.0000m  
    7.93000n    700.0000m  
    7.94000n    700.0000m  
    7.95000n    700.0000m  
    7.96000n    700.0000m  
    7.97000n    700.0000m  
    7.98000n    700.0000m  
    7.99000n    700.0000m  
    8.00000n    700.0000m  
y
 escrita_0= 290.8793p  targ=   1.1580n   trig= 867.1429p
 leitura_0=  47.3566p  targ=   3.2002n   trig=   3.1529n
 escrita_1= 451.4441f  targ=   4.8676n   trig=   4.8671n
 leitura_1=  45.8515p  targ=   7.1987n   trig=   7.1529n
 energia_vdd= -31.2699f  from=   0.          to=   8.0000n

          ***** job concluded
1****** HSPICE -- H-2013.03-SP1 32-BIT (May 29 2013) RHEL32 ******              
 ******  
 '8t-ser 0.5ghz'

  ******  job statistics summary tnom=  25.000 temp=  25.000 *****
  
  
 ******  Machine Information  ******
 CPU:
 model name	: Intel(R) Xeon(R) CPU           E5620  @ 2.40GHz
 cpu MHz	: 2400.116
  
 OS:
 Linux version 3.2.0-4-amd64 (debian-kernel@lists.debian.org) (gcc version 4.6.3 (Debian 4.6.3-15) ) #1 SMP Debian 3.2.39-2


  ******  HSPICE Threads Information  ******

  Command Line Threads Count :     1
  Available CPU Count        :    16
  Actual Threads Count       :     1


  ******  Circuit Statistics  ******
  # nodes       =      20 # elements   =      38
  # resistors   =       0 # capacitors =       2 # inductors   =       0
  # mutual_inds =       0 # vccs       =       0 # vcvs        =       0
  # cccs        =       0 # ccvs       =       0 # volt_srcs   =       6
  # curr_srcs   =       0 # diodes     =       0 # bjts        =       0
  # jfets       =       0 # mosfets    =      30 # U elements  =       0
  # T elements  =       0 # W elements =       0 # B elements  =       0
  # S elements  =       0 # P elements =       0 # va device   =       0
  # vector_srcs =       0 # N elements =       0


  ******  Runtime Statistics (seconds)  ******

  analysis           time    # points   tot. iter  conv.iter
  op point           0.01           1          19
  transient          0.49         801        1621         570 rev=        97
  readin             0.01
  errchk             0.02
  setup              0.00
  output             0.01


           peak memory used        120.44 megabytes
           total cpu time            0.55 seconds
           total elapsed time        0.75 seconds
           job started at     17:42:21 01/19/2020
           job ended   at     17:42:22 01/19/2020


 lic: Release hspice token(s) 
 lic: total license checkout elapse time:        0.20(s)
