$DATA1 SOURCE='HSPICE' VERSION='H-2013.03-SP1 32-BIT'
.TITLE '* circuito pdice'
 escrita_0        leitura_0        escrita_1        leitura_1         
 energia_vdd      temper           alter#            
    failed        -7.137e-10          failed         2.215e-12        
 -7.449e-14         25.0000        1                 
